%Mem = 2GB
%nproc=16
# b3lyp/6-31g* td 

Butadiene tddft 

0 1
C         10.55000       11.93000       11.85000 
H          9.46000       12.05000       11.82000 
C         11.44000       12.76000       12.70000 
H         12.51000       12.55000       12.66000 
C         11.05000       13.77000       13.51000 
H         10.06000       14.18000       13.74000 
H         11.78000       14.10000       14.24000 
C         11.07000       11.01000       11.05000 
H         12.14000       10.85000       11.13000 
H         10.52000       10.50000       10.26000 
  
C          7.08000       13.58000        8.75000 -0.302700
H          8.05000       13.39000        9.21000 0.00070
Cl         7.11000       14.55000        7.26000 0.30060
Cl         6.58000       11.90000        8.45000 0.30060
Cl         5.99000       14.32000       10.00000 0.30060
C          4.69000        7.46000       15.83000 -0.302700
H          4.51000        6.92000       14.90000 0.00070
Cl         3.42000        8.60000       16.28000 0.30060
Cl         4.52000        6.16000       17.08000 0.30060
Cl         6.20000        8.34000       15.49000 0.30060
C         10.40000        8.10000        6.55000 -0.302700
H         11.40000        7.67000        6.56000 0.00070
Cl        10.44000        9.69000        7.29000 0.30060
Cl         9.76000        8.17000        4.84000 0.30060
Cl         9.36000        6.95000        7.43000 0.30060
C         18.20000       14.72000       12.30000 -0.302700
H         19.29000       14.62000       12.32000 0.00070
Cl        17.44000       13.26000       11.57000 0.30060
Cl        17.60000       14.74000       13.99000 0.30060
Cl        17.76000       16.28000       11.37000 0.30060
C          4.33000       14.86000        3.86000 -0.302700
H          4.21000       15.35000        4.83000 0.00070
Cl         5.81000       13.93000        4.14000 0.30060
Cl         2.99000       13.76000        3.69000 0.30060
Cl         4.59000       15.96000        2.44000 0.30060
C          6.34000        9.04000       19.45000 -0.302700
H          5.63000        8.22000       19.53000 0.00070
Cl         5.41000       10.35000       18.61000 0.30060
Cl         6.90000        9.37000       21.11000 0.30060
Cl         7.85000        8.55000       18.53000 0.30060
C          4.63000       10.05000       12.29000 -0.302700
H          5.11000       10.74000       13.00000 0.00070
Cl         5.84000        8.67000       12.18000 0.30060
Cl         2.92000        9.73000       12.83000 0.30060
Cl         4.57000       10.96000       10.70000 0.30060
C         10.58000        2.11000        8.71000 -0.302700
H         10.12000        1.13000        8.88000 0.00070
Cl        12.36000        1.77000        8.75000 0.30060
Cl         9.97000        2.68000        7.13000 0.30060
Cl        10.05000        3.15000       10.03000 0.30060
C         14.46000       15.62000        6.77000 -0.302700
H         13.37000       15.58000        6.84000 0.00070
Cl        15.03000       15.05000        8.34000 0.30060
Cl        15.05000       14.58000        5.48000 0.30060
Cl        15.04000       17.27000        6.61000 0.30060
C         15.24000       10.17000        9.56000 -0.302700
H         16.26000       10.39000        9.24000 0.00070
Cl        15.45000        8.72000       10.50000 0.30060
Cl        14.62000       11.66000       10.29000 0.30060
Cl        14.37000        9.87000        7.98000 0.30060
C         12.42000        4.91000       16.64000 -0.302700
H         11.65000        5.26000       15.95000 0.00070
Cl        12.48000        3.14000       16.64000 0.30060
Cl        13.95000        5.59000       16.17000 0.30060
Cl        12.09000        5.46000       18.31000 0.30060
C         21.46000       10.27000       14.88000 -0.302700
H         21.16000        9.22000       14.85000 0.00070
Cl        20.79000       11.05000       13.40000 0.30060
Cl        20.63000       10.88000       16.35000 0.30060
Cl        23.24000       10.43000       14.99000 0.30060
C         11.07000        8.00000       12.41000 -0.302700
H         11.25000        9.04000       12.67000 0.00070
Cl        11.77000        7.09000       13.74000 0.30060
Cl         9.34000        7.57000       12.26000 0.30060
Cl        12.01000        7.63000       10.97000 0.30060
C         17.40000        7.61000       19.91000 -0.302700
H         17.31000        6.53000       19.77000 0.00070
Cl        18.42000        8.21000       18.64000 0.30060
Cl        15.75000        8.30000       19.66000 0.30060
Cl        17.98000        8.03000       21.56000 0.30060
C         13.00000       20.27000        7.90000 -0.302700
H         13.48000       19.94000        6.98000 0.00070
Cl        11.94000       21.77000        7.74000 0.30060
Cl        12.15000       18.74000        8.36000 0.30060
Cl        14.43000       20.66000        8.98000 0.30060
C         16.65000       18.85000       14.89000 -0.302700
H         16.83000       17.78000       14.79000 0.00070
Cl        18.27000       19.37000       15.27000 0.30060
Cl        16.43000       19.32000       13.16000 0.30060
Cl        15.34000       19.38000       15.93000 0.30060
C         15.92000        9.81000       14.37000 -0.302700
H         15.66000        9.22000       15.25000 0.00070
Cl        17.31000        9.19000       13.39000 0.30060
Cl        14.37000        9.74000       13.48000 0.30060
Cl        16.16000       11.47000       14.91000 0.30060
C         13.33000       16.62000       12.69000 -0.302700
H         12.25000       16.49000       12.57000 0.00070
Cl        14.30000       15.44000       11.73000 0.30060
Cl        13.57000       18.11000       11.77000 0.30060
Cl        13.81000       16.61000       14.41000 0.30060
C         11.57000       20.12000       16.40000 -0.302700
H         12.51000       20.27000       15.87000 0.00070
Cl        10.60000       21.43000       15.82000 0.30060
Cl        10.82000       18.57000       15.80000 0.30060
Cl        11.84000       20.39000       18.19000 0.30060
C         19.50000       11.60000        8.30000 -0.302700
H         20.35000       12.28000        8.36000 0.00070
Cl        19.95000       10.40000        7.02000 0.30060
Cl        19.07000       10.84000        9.84000 0.30060
Cl        18.16000       12.60000        7.64000 0.30060
C         13.26000       18.28000        3.12000 -0.302700
H         12.39000       18.73000        2.64000 0.00070
Cl        14.29000       17.29000        2.07000 0.30060
Cl        14.27000       19.61000        3.83000 0.30060
Cl        12.69000       17.26000        4.38000 0.30060
C          8.64000       13.33000       19.98000 -0.302700
H          8.81000       12.29000       19.69000 0.00070
Cl         6.93000       13.50000       19.94000 0.30060
Cl         9.33000       13.59000       21.59000 0.30060
Cl         9.34000       14.59000       18.86000 0.30060
C         13.12000        3.27000       12.96000 -0.302700
H         12.47000        3.83000       13.64000 0.00070
Cl        12.41000        1.71000       12.84000 0.30060
Cl        13.14000        4.31000       11.43000 0.30060
Cl        14.69000        3.03000       13.84000 0.30060
C         12.67000       10.50000        2.99000 -0.302700
H         12.45000       11.49000        3.39000 0.00070
Cl        11.36000        9.88000        1.97000 0.30060
Cl        14.24000       10.84000        2.21000 0.30060
Cl        13.21000        9.40000        4.20000 0.30060
C          3.14000       18.45000       10.86000 -0.302700
H          2.45000       17.66000       10.55000 0.00070
Cl         4.49000       17.49000       11.57000 0.30060
Cl         3.60000       19.41000        9.45000 0.30060
Cl         2.17000       19.45000       11.97000 0.30060
C         11.15000       21.27000       11.83000 -0.302700
H         11.14000       21.60000       10.78000 0.00070
Cl        12.82000       21.29000       12.25000 0.30060
Cl        10.11000       22.42000       12.75000 0.30060
Cl        10.26000       19.74000       11.59000 0.30060
C          8.15000       18.86000        4.25000 -0.302700
H          7.87000       19.65000        4.94000 0.00070
Cl         7.83000       17.28000        5.06000 0.30060
Cl         7.04000       19.03000        2.79000 0.30060
Cl         9.86000       19.28000        3.94000 0.30060
C          6.17000       13.32000       14.46000 -0.302700
H          6.54000       14.27000       14.88000 0.00070
Cl         5.41000       12.58000       15.89000 0.30060
Cl         4.99000       13.72000       13.17000 0.30060
Cl         7.46000       12.33000       13.69000 0.30060
C         18.47000       16.36000        5.35000 -0.302700
H         17.62000       16.14000        6.00000 0.00070
Cl        19.64000       14.98000        5.47000 0.30060
Cl        17.65000       16.78000        3.77000 0.30060
Cl        19.30000       17.84000        5.92000 0.30060
C          1.56000       14.74000       14.06000 -0.302700
H          2.56000       14.92000       14.46000 0.00070
Cl         1.59000       13.16000       13.16000 0.30060
Cl         0.31000       14.61000       15.32000 0.30060
Cl         1.17000       16.07000       12.92000 0.30060
C          6.06000       17.38000       15.71000 -0.302700
H          6.06000       18.39000       16.13000 0.00070
Cl         7.25000       17.46000       14.42000 0.30060
Cl         6.64000       16.23000       17.02000 0.30060
Cl         4.41000       17.04000       15.31000 0.30060
C         18.79000        5.27000       14.52000 -0.302700
H         19.88000        5.33000       14.63000 0.00070
Cl        18.52000        3.55000       15.01000 0.30060
Cl        18.00000        6.48000       15.58000 0.30060
Cl        18.53000        5.64000       12.82000 0.30060
C          7.60000        4.59000       15.83000 -0.302700
H          6.79000        4.62000       16.55000 0.00070
Cl         7.19000        5.14000       14.21000 0.30060
Cl         9.05000        5.45000       16.41000 0.30060
Cl         7.97000        2.84000       15.52000 0.30060
C          1.97000       16.25000        6.90000 -0.302700
H          2.11000       16.79000        5.96000 0.00070
Cl         0.94000       17.14000        7.99000 0.30060
Cl         1.19000       14.64000        6.66000 0.30060
Cl         3.68000       16.09000        7.57000 0.30060
C         14.98000        5.25000        7.12000 -0.302700
H         15.70000        4.58000        6.67000 0.00070
Cl        15.32000        5.61000        8.83000 0.30060
Cl        15.02000        6.77000        6.23000 0.30060
Cl        13.41000        4.48000        6.93000 0.30060
C         10.31000       13.20000        6.30000 -0.302700
H          9.99000       13.32000        7.34000 0.00070
Cl         9.16000       12.13000        5.47000 0.30060
Cl        10.38000       14.69000        5.41000 0.30060
Cl        11.98000       12.52000        6.39000 0.30060
C         14.64000       14.68000       18.29000 -0.302700
H         14.84000       13.97000       19.10000 0.00070
Cl        16.06000       15.62000       17.76000 0.30060
Cl        14.17000       13.50000       17.04000 0.30060
Cl        13.27000       15.82000       18.76000 0.30060
C          4.68000        7.42000        8.73000 -0.302700
H          4.94000        7.89000        9.68000 0.00070
Cl         5.38000        8.40000        7.43000 0.30060
Cl         5.55000        5.80000        8.74000 0.30060
Cl         2.90000        7.32000        8.65000 0.30060

%Mem = 2GB
%nproc=16
# b3lyp/6-31g* td 

Butadiene tddft 

0 1
C         10.55000       11.93000       11.85000 
H          9.46000       12.05000       11.82000 
C         11.44000       12.76000       12.70000 
H         12.51000       12.55000       12.66000 
C         11.05000       13.77000       13.51000 
H         10.06000       14.18000       13.74000 
H         11.78000       14.10000       14.24000 
C         11.07000       11.01000       11.05000 
H         12.14000       10.85000       11.13000 
H         10.52000       10.50000       10.26000 
  
C          7.08000       13.58000        8.75000 -0.302700
H          8.05000       13.39000        9.21000 0.00070
Cl         7.11000       14.55000        7.26000 0.30060
Cl         6.58000       11.90000        8.45000 0.30060
Cl         5.99000       14.32000       10.00000 0.30060
C          4.69000        7.46000       15.83000 -0.302700
H          4.51000        6.92000       14.90000 0.00070
Cl         3.42000        8.60000       16.28000 0.30060
Cl         4.52000        6.16000       17.08000 0.30060
Cl         6.20000        8.34000       15.49000 0.30060
C         10.40000        8.10000        6.55000 -0.302700
H         11.40000        7.67000        6.56000 0.00070
Cl        10.44000        9.69000        7.29000 0.30060
Cl         9.76000        8.17000        4.84000 0.30060
Cl         9.36000        6.95000        7.43000 0.30060
C         18.20000       14.72000       12.30000 -0.302700
H         19.29000       14.62000       12.32000 0.00070
Cl        17.44000       13.26000       11.57000 0.30060
Cl        17.60000       14.74000       13.99000 0.30060
Cl        17.76000       16.28000       11.37000 0.30060
C          4.33000       14.86000        3.86000 -0.302700
H          4.21000       15.35000        4.83000 0.00070
Cl         5.81000       13.93000        4.14000 0.30060
Cl         2.99000       13.76000        3.69000 0.30060
Cl         4.59000       15.96000        2.44000 0.30060
C          6.34000        9.04000       19.45000 -0.302700
H          5.63000        8.22000       19.53000 0.00070
Cl         5.41000       10.35000       18.61000 0.30060
Cl         6.90000        9.37000       21.11000 0.30060
Cl         7.85000        8.55000       18.53000 0.30060
C          4.63000       10.05000       12.29000 -0.302700
H          5.11000       10.74000       13.00000 0.00070
Cl         5.84000        8.67000       12.18000 0.30060
Cl         2.92000        9.73000       12.83000 0.30060
Cl         4.57000       10.96000       10.70000 0.30060
C         10.58000        2.11000        8.71000 -0.302700
H         10.12000        1.13000        8.88000 0.00070
Cl        12.36000        1.77000        8.75000 0.30060
Cl         9.97000        2.68000        7.13000 0.30060
Cl        10.05000        3.15000       10.03000 0.30060
C         14.46000       15.62000        6.77000 -0.302700
H         13.37000       15.58000        6.84000 0.00070
Cl        15.03000       15.05000        8.34000 0.30060
Cl        15.05000       14.58000        5.48000 0.30060
Cl        15.04000       17.27000        6.61000 0.30060
C         15.24000       10.17000        9.56000 -0.302700
H         16.26000       10.39000        9.24000 0.00070
Cl        15.45000        8.72000       10.50000 0.30060
Cl        14.62000       11.66000       10.29000 0.30060
Cl        14.37000        9.87000        7.98000 0.30060
C         12.42000        4.91000       16.64000 -0.302700
H         11.65000        5.26000       15.95000 0.00070
Cl        12.48000        3.14000       16.64000 0.30060
Cl        13.95000        5.59000       16.17000 0.30060
Cl        12.09000        5.46000       18.31000 0.30060
C         21.46000       10.27000       14.88000 -0.302700
H         21.16000        9.22000       14.85000 0.00070
Cl        20.79000       11.05000       13.40000 0.30060
Cl        20.63000       10.88000       16.35000 0.30060
Cl        23.24000       10.43000       14.99000 0.30060
C         11.07000        8.00000       12.41000 -0.302700
H         11.25000        9.04000       12.67000 0.00070
Cl        11.77000        7.09000       13.74000 0.30060
Cl         9.34000        7.57000       12.26000 0.30060
Cl        12.01000        7.63000       10.97000 0.30060
C         17.40000        7.61000       19.91000 -0.302700
H         17.31000        6.53000       19.77000 0.00070
Cl        18.42000        8.21000       18.64000 0.30060
Cl        15.75000        8.30000       19.66000 0.30060
Cl        17.98000        8.03000       21.56000 0.30060
C         13.00000       20.27000        7.90000 -0.302700
H         13.48000       19.94000        6.98000 0.00070
Cl        11.94000       21.77000        7.74000 0.30060
Cl        12.15000       18.74000        8.36000 0.30060
Cl        14.43000       20.66000        8.98000 0.30060
C         16.65000       18.85000       14.89000 -0.302700
H         16.83000       17.78000       14.79000 0.00070
Cl        18.27000       19.37000       15.27000 0.30060
Cl        16.43000       19.32000       13.16000 0.30060
Cl        15.34000       19.38000       15.93000 0.30060
C         15.92000        9.81000       14.37000 -0.302700
H         15.66000        9.22000       15.25000 0.00070
Cl        17.31000        9.19000       13.39000 0.30060
Cl        14.37000        9.74000       13.48000 0.30060
Cl        16.16000       11.47000       14.91000 0.30060
C         13.33000       16.62000       12.69000 -0.302700
H         12.25000       16.49000       12.57000 0.00070
Cl        14.30000       15.44000       11.73000 0.30060
Cl        13.57000       18.11000       11.77000 0.30060
Cl        13.81000       16.61000       14.41000 0.30060
C         11.57000       20.12000       16.40000 -0.302700
H         12.51000       20.27000       15.87000 0.00070
Cl        10.60000       21.43000       15.82000 0.30060
Cl        10.82000       18.57000       15.80000 0.30060
Cl        11.84000       20.39000       18.19000 0.30060
C         19.50000       11.60000        8.30000 -0.302700
H         20.35000       12.28000        8.36000 0.00070
Cl        19.95000       10.40000        7.02000 0.30060
Cl        19.07000       10.84000        9.84000 0.30060
Cl        18.16000       12.60000        7.64000 0.30060
C         13.26000       18.28000        3.12000 -0.302700
H         12.39000       18.73000        2.64000 0.00070
Cl        14.29000       17.29000        2.07000 0.30060
Cl        14.27000       19.61000        3.83000 0.30060
Cl        12.69000       17.26000        4.38000 0.30060
C          8.64000       13.33000       19.98000 -0.302700
H          8.81000       12.29000       19.69000 0.00070
Cl         6.93000       13.50000       19.94000 0.30060
Cl         9.33000       13.59000       21.59000 0.30060
Cl         9.34000       14.59000       18.86000 0.30060
C         13.12000        3.27000       12.96000 -0.302700
H         12.47000        3.83000       13.64000 0.00070
Cl        12.41000        1.71000       12.84000 0.30060
Cl        13.14000        4.31000       11.43000 0.30060
Cl        14.69000        3.03000       13.84000 0.30060
C         12.67000       10.50000        2.99000 -0.302700
H         12.45000       11.49000        3.39000 0.00070
Cl        11.36000        9.88000        1.97000 0.30060
Cl        14.24000       10.84000        2.21000 0.30060
Cl        13.21000        9.40000        4.20000 0.30060
C          3.14000       18.45000       10.86000 -0.302700
H          2.45000       17.66000       10.55000 0.00070
Cl         4.49000       17.49000       11.57000 0.30060
Cl         3.60000       19.41000        9.45000 0.30060
Cl         2.17000       19.45000       11.97000 0.30060
C         11.15000       21.27000       11.83000 -0.302700
H         11.14000       21.60000       10.78000 0.00070
Cl        12.82000       21.29000       12.25000 0.30060
Cl        10.11000       22.42000       12.75000 0.30060
Cl        10.26000       19.74000       11.59000 0.30060
C          8.15000       18.86000        4.25000 -0.302700
H          7.87000       19.65000        4.94000 0.00070
Cl         7.83000       17.28000        5.06000 0.30060
Cl         7.04000       19.03000        2.79000 0.30060
Cl         9.86000       19.28000        3.94000 0.30060
C          6.17000       13.32000       14.46000 -0.302700
H          6.54000       14.27000       14.88000 0.00070
Cl         5.41000       12.58000       15.89000 0.30060
Cl         4.99000       13.72000       13.17000 0.30060
Cl         7.46000       12.33000       13.69000 0.30060
C         18.47000       16.36000        5.35000 -0.302700
H         17.62000       16.14000        6.00000 0.00070
Cl        19.64000       14.98000        5.47000 0.30060
Cl        17.65000       16.78000        3.77000 0.30060
Cl        19.30000       17.84000        5.92000 0.30060
C          1.56000       14.74000       14.06000 -0.302700
H          2.56000       14.92000       14.46000 0.00070
Cl         1.59000       13.16000       13.16000 0.30060
Cl         0.31000       14.61000       15.32000 0.30060
Cl         1.17000       16.07000       12.92000 0.30060
C          6.06000       17.38000       15.71000 -0.302700
H          6.06000       18.39000       16.13000 0.00070
Cl         7.25000       17.46000       14.42000 0.30060
Cl         6.64000       16.23000       17.02000 0.30060
Cl         4.41000       17.04000       15.31000 0.30060
C         18.79000        5.27000       14.52000 -0.302700
H         19.88000        5.33000       14.63000 0.00070
Cl        18.52000        3.55000       15.01000 0.30060
Cl        18.00000        6.48000       15.58000 0.30060
Cl        18.53000        5.64000       12.82000 0.30060
C          7.60000        4.59000       15.83000 -0.302700
H          6.79000        4.62000       16.55000 0.00070
Cl         7.19000        5.14000       14.21000 0.30060
Cl         9.05000        5.45000       16.41000 0.30060
Cl         7.97000        2.84000       15.52000 0.30060
C          1.97000       16.25000        6.90000 -0.302700
H          2.11000       16.79000        5.96000 0.00070
Cl         0.94000       17.14000        7.99000 0.30060
Cl         1.19000       14.64000        6.66000 0.30060
Cl         3.68000       16.09000        7.57000 0.30060
C         14.98000        5.25000        7.12000 -0.302700
H         15.70000        4.58000        6.67000 0.00070
Cl        15.32000        5.61000        8.83000 0.30060
Cl        15.02000        6.77000        6.23000 0.30060
Cl        13.41000        4.48000        6.93000 0.30060
C         10.31000       13.20000        6.30000 -0.302700
H          9.99000       13.32000        7.34000 0.00070
Cl         9.16000       12.13000        5.47000 0.30060
Cl        10.38000       14.69000        5.41000 0.30060
Cl        11.98000       12.52000        6.39000 0.30060
C         14.64000       14.68000       18.29000 -0.302700
H         14.84000       13.97000       19.10000 0.00070
Cl        16.06000       15.62000       17.76000 0.30060
Cl        14.17000       13.50000       17.04000 0.30060
Cl        13.27000       15.82000       18.76000 0.30060
C          4.68000        7.42000        8.73000 -0.302700
H          4.94000        7.89000        9.68000 0.00070
Cl         5.38000        8.40000        7.43000 0.30060
Cl         5.55000        5.80000        8.74000 0.30060
Cl         2.90000        7.32000        8.65000 0.30060

