%Mem = 2GB
%nproc=16
# b3lyp/6-31g* td 

Butadiene tddft 

0 1
C         12.30000       13.02000       10.72000 
H         12.09000       14.03000       11.07000 
C         12.38000       11.92000       11.71000 
H         12.32000       10.87000       11.43000 
C         12.41000       12.17000       13.04000 
H         12.35000       13.22000       13.32000 
H         12.52000       11.48000       13.87000 
C         12.54000       12.80000        9.40000 
H         12.73000       11.78000        9.07000 
H         12.77000       13.64000        8.75000 
  
C          5.46000       18.91000        9.10000 -0.302700
H          5.19000       19.82000        9.64000 0.00070
Cl         6.26000       19.24000        7.55000 0.30060
Cl         6.54000       17.95000       10.13000 0.30060
Cl         3.84000       18.18000        8.86000 0.30060
C          5.53000        8.37000        5.68000 -0.302700
H          4.85000        8.52000        4.83000 0.00070
Cl         6.43000        6.89000        5.33000 0.30060
Cl         6.60000        9.81000        5.81000 0.30060
Cl         4.73000        8.09000        7.21000 0.30060
C         10.45000       20.10000       18.03000 -0.302700
H         10.60000       19.40000       17.21000 0.00070
Cl         9.34000       21.38000       17.48000 0.30060
Cl         9.86000       19.04000       19.34000 0.30060
Cl        12.07000       20.85000       18.39000 0.30060
C         10.78000        7.14000        3.65000 -0.302700
H         10.67000        7.28000        4.72000 0.00070
Cl         9.66000        8.44000        3.02000 0.30060
Cl        12.43000        7.63000        3.06000 0.30060
Cl        10.20000        5.49000        3.11000 0.30060
C         15.79000        2.68000       11.24000 -0.302700
H         16.06000        2.62000       12.30000 0.00070
Cl        14.60000        3.91000       11.22000 0.30060
Cl        17.26000        3.17000       10.34000 0.30060
Cl        15.13000        1.12000       10.90000 0.30060
C          8.16000        2.28000       11.63000 -0.302700
H          8.45000        1.72000       12.52000 0.00070
Cl         7.08000        3.64000       12.09000 0.30060
Cl         9.70000        3.00000       11.16000 0.30060
Cl         7.51000        1.30000       10.32000 0.30060
C         10.10000        6.98000        9.59000 -0.302700
H         10.62000        7.89000        9.31000 0.00070
Cl         9.91000        6.98000       11.34000 0.30060
Cl         8.42000        7.13000        8.98000 0.30060
Cl        10.86000        5.49000        8.97000 0.30060
C         17.41000        9.33000       17.78000 -0.302700
H         17.22000        9.94000       18.66000 0.00070
Cl        17.34000        7.60000       18.12000 0.30060
Cl        16.04000        9.74000       16.80000 0.30060
Cl        18.95000        9.71000       17.02000 0.30060
C         19.42000        8.89000        7.65000 -0.302700
H         19.64000        9.60000        8.45000 0.00070
Cl        18.67000        7.40000        8.40000 0.30060
Cl        18.29000       10.02000        6.79000 0.30060
Cl        20.95000        8.60000        6.78000 0.30060
C         19.98000       18.76000       15.95000 -0.302700
H         19.55000       17.88000       15.48000 0.00070
Cl        21.64000       18.43000       16.35000 0.30060
Cl        19.77000       20.08000       14.80000 0.30060
Cl        19.05000       19.04000       17.41000 0.30060
C         11.18000        8.33000       16.11000 -0.302700
H         11.42000        7.28000       15.95000 0.00070
Cl        10.20000        8.97000       14.72000 0.30060
Cl        10.52000        8.74000       17.75000 0.30060
Cl        12.83000        9.08000       16.03000 0.30060
C         14.80000        8.34000       10.40000 -0.302700
H         15.34000        7.39000       10.31000 0.00070
Cl        15.75000        9.33000       11.54000 0.30060
Cl        14.55000        9.25000        8.89000 0.30060
Cl        13.24000        7.91000       11.19000 0.30060
C          3.50000       13.85000        8.88000 -0.302700
H          3.86000       12.88000        8.55000 0.00070
Cl         1.88000       13.68000        9.54000 0.30060
Cl         4.68000       14.35000       10.19000 0.30060
Cl         3.72000       14.92000        7.46000 0.30060
C          4.03000        6.06000       12.80000 -0.302700
H          4.76000        6.18000       13.60000 0.00070
Cl         3.81000        4.36000       12.44000 0.30060
Cl         2.50000        6.81000       13.42000 0.30060
Cl         4.64000        6.93000       11.37000 0.30060
C         11.68000       21.59000        8.60000 -0.302700
H         11.44000       20.59000        8.24000 0.00070
Cl        10.11000       22.44000        8.81000 0.30060
Cl        12.35000       21.58000       10.27000 0.30060
Cl        12.67000       22.41000        7.42000 0.30060
C          2.59000       11.07000       14.14000 -0.302700
H          1.99000       10.43000       14.78000 0.00070
Cl         3.75000       11.85000       15.25000 0.30060
Cl         3.57000       10.32000       12.83000 0.30060
Cl         1.57000       12.33000       13.44000 0.30060
C         10.00000       13.38000       19.74000 -0.302700
H          9.04000       12.85000       19.71000 0.00070
Cl        11.18000       12.07000       20.12000 0.30060
Cl        10.26000       14.36000       18.27000 0.30060
Cl         9.75000       14.36000       21.23000 0.30060
C         18.20000       12.66000       10.01000 -0.302700
H         17.85000       11.72000       10.44000 0.00070
Cl        17.09000       12.86000        8.65000 0.30060
Cl        18.06000       14.05000       11.08000 0.30060
Cl        19.93000       12.58000        9.63000 0.30060
C          6.06000        6.30000       16.44000 -0.302700
H          6.70000        6.45000       17.31000 0.00070
Cl         6.98000        6.49000       14.93000 0.30060
Cl         5.47000        4.63000       16.43000 0.30060
Cl         4.68000        7.43000       16.46000 0.30060
C         16.35000       10.19000        3.75000 -0.302700
H         17.25000       10.70000        4.11000 0.00070
Cl        17.03000        9.29000        2.44000 0.30060
Cl        15.60000        9.19000        4.99000 0.30060
Cl        15.33000       11.52000        3.21000 0.30060
C         19.96000       13.74000        4.06000 -0.302700
H         21.00000       14.02000        3.86000 0.00070
Cl        19.64000       13.41000        5.75000 0.30060
Cl        18.82000       14.96000        3.52000 0.30060
Cl        19.80000       12.15000        3.18000 0.30060
C          1.47000        9.33000       10.19000 -0.302700
H          1.67000        8.72000       11.08000 0.00070
Cl         2.97000        9.87000        9.42000 0.30060
Cl         0.62000        8.36000        8.95000 0.30060
Cl         0.54000       10.79000       10.67000 0.30060
C          8.05000       12.76000       13.04000 -0.302700
H          9.04000       12.87000       12.59000 0.00070
Cl         7.26000       14.39000       13.18000 0.30060
Cl         7.14000       11.78000       11.81000 0.30060
Cl         8.20000       11.92000       14.64000 0.30060
C         21.70000        9.20000       12.98000 -0.302700
H         20.95000        8.95000       13.73000 0.00070
Cl        23.02000        8.11000       13.31000 0.30060
Cl        21.08000        8.97000       11.30000 0.30060
Cl        22.08000       10.89000       13.34000 0.30060
C          9.82000       17.81000       10.33000 -0.302700
H          8.80000       17.96000        9.97000 0.00070
Cl        10.99000       17.70000        9.01000 0.30060
Cl        10.02000       19.35000       11.27000 0.30060
Cl        10.02000       16.50000       11.45000 0.30060
C         15.07000       18.37000       17.59000 -0.302700
H         15.68000       17.56000       17.19000 0.00070
Cl        14.42000       17.65000       19.14000 0.30060
Cl        16.15000       19.72000       17.93000 0.30060
Cl        13.86000       18.83000       16.40000 0.30060
C          4.70000       18.97000       14.19000 -0.302700
H          3.61000       18.99000       14.29000 0.00070
Cl         5.48000       19.39000       15.71000 0.30060
Cl         4.93000       17.21000       13.84000 0.30060
Cl         5.04000       20.07000       12.85000 0.30060
C         17.68000        6.33000       14.65000 -0.302700
H         18.07000        6.28000       15.68000 0.00070
Cl        16.06000        6.98000       14.86000 0.30060
Cl        18.67000        7.59000       13.95000 0.30060
Cl        17.68000        4.85000       13.65000 0.30060
C         10.35000       18.45000       14.48000 -0.302700
H         10.53000       18.14000       13.45000 0.00070
Cl        11.25000       20.00000       14.63000 0.30060
Cl         8.59000       18.53000       14.62000 0.30060
Cl        11.10000       17.21000       15.47000 0.30060
C          7.15000       15.94000        4.02000 -0.302700
H          7.40000       16.99000        3.88000 0.00070
Cl         8.33000       14.85000        4.88000 0.30060
Cl         5.66000       15.82000        4.85000 0.30060
Cl         7.00000       15.36000        2.32000 0.30060
C         12.97000       14.78000        4.38000 -0.302700
H         12.44000       14.99000        3.44000 0.00070
Cl        12.77000       13.11000        4.90000 0.30060
Cl        14.64000       15.33000        4.24000 0.30060
Cl        12.12000       15.84000        5.56000 0.30060
C         14.30000        4.89000        7.48000 -0.302700
H         13.69000        4.53000        8.31000 0.00070
Cl        14.87000        3.57000        6.37000 0.30060
Cl        13.36000        6.11000        6.62000 0.30060
Cl        15.68000        5.80000        8.23000 0.30060
C         14.40000       14.06000       17.87000 -0.302700
H         13.62000       14.43000       18.54000 0.00070
Cl        14.15000       15.00000       16.33000 0.30060
Cl        16.07000       14.21000       18.53000 0.30060
Cl        13.88000       12.36000       17.52000 0.30060
C          8.92000       12.44000        8.68000 -0.302700
H          9.21000       13.18000        9.43000 0.00070
Cl         9.38000       10.86000        9.26000 0.30060
Cl         7.18000       12.50000        8.14000 0.30060
Cl         9.88000       12.72000        7.23000 0.30060
C         15.87000       18.50000       12.70000 -0.302700
H         16.07000       18.15000       11.69000 0.00070
Cl        16.65000       20.14000       12.82000 0.30060
Cl        14.14000       18.74000       12.80000 0.30060
Cl        16.50000       17.23000       13.90000 0.30060
C         13.16000        5.03000       14.92000 -0.302700
H         14.22000        5.12000       14.71000 0.00070
Cl        12.51000        3.41000       14.54000 0.30060
Cl        13.05000        5.36000       16.67000 0.30060
Cl        12.50000        6.32000       13.85000 0.30060

%Mem = 2GB
%nproc=16
# b3lyp/6-31g* td 

Butadiene tddft 

0 1
C         12.30000       13.02000       10.72000 
H         12.09000       14.03000       11.07000 
C         12.38000       11.92000       11.71000 
H         12.32000       10.87000       11.43000 
C         12.41000       12.17000       13.04000 
H         12.35000       13.22000       13.32000 
H         12.52000       11.48000       13.87000 
C         12.54000       12.80000        9.40000 
H         12.73000       11.78000        9.07000 
H         12.77000       13.64000        8.75000 
  
C          5.46000       18.91000        9.10000 -0.302700
H          5.19000       19.82000        9.64000 0.00070
Cl         6.26000       19.24000        7.55000 0.30060
Cl         6.54000       17.95000       10.13000 0.30060
Cl         3.84000       18.18000        8.86000 0.30060
C          5.53000        8.37000        5.68000 -0.302700
H          4.85000        8.52000        4.83000 0.00070
Cl         6.43000        6.89000        5.33000 0.30060
Cl         6.60000        9.81000        5.81000 0.30060
Cl         4.73000        8.09000        7.21000 0.30060
C         10.45000       20.10000       18.03000 -0.302700
H         10.60000       19.40000       17.21000 0.00070
Cl         9.34000       21.38000       17.48000 0.30060
Cl         9.86000       19.04000       19.34000 0.30060
Cl        12.07000       20.85000       18.39000 0.30060
C         10.78000        7.14000        3.65000 -0.302700
H         10.67000        7.28000        4.72000 0.00070
Cl         9.66000        8.44000        3.02000 0.30060
Cl        12.43000        7.63000        3.06000 0.30060
Cl        10.20000        5.49000        3.11000 0.30060
C         15.79000        2.68000       11.24000 -0.302700
H         16.06000        2.62000       12.30000 0.00070
Cl        14.60000        3.91000       11.22000 0.30060
Cl        17.26000        3.17000       10.34000 0.30060
Cl        15.13000        1.12000       10.90000 0.30060
C          8.16000        2.28000       11.63000 -0.302700
H          8.45000        1.72000       12.52000 0.00070
Cl         7.08000        3.64000       12.09000 0.30060
Cl         9.70000        3.00000       11.16000 0.30060
Cl         7.51000        1.30000       10.32000 0.30060
C         10.10000        6.98000        9.59000 -0.302700
H         10.62000        7.89000        9.31000 0.00070
Cl         9.91000        6.98000       11.34000 0.30060
Cl         8.42000        7.13000        8.98000 0.30060
Cl        10.86000        5.49000        8.97000 0.30060
C         17.41000        9.33000       17.78000 -0.302700
H         17.22000        9.94000       18.66000 0.00070
Cl        17.34000        7.60000       18.12000 0.30060
Cl        16.04000        9.74000       16.80000 0.30060
Cl        18.95000        9.71000       17.02000 0.30060
C         19.42000        8.89000        7.65000 -0.302700
H         19.64000        9.60000        8.45000 0.00070
Cl        18.67000        7.40000        8.40000 0.30060
Cl        18.29000       10.02000        6.79000 0.30060
Cl        20.95000        8.60000        6.78000 0.30060
C         19.98000       18.76000       15.95000 -0.302700
H         19.55000       17.88000       15.48000 0.00070
Cl        21.64000       18.43000       16.35000 0.30060
Cl        19.77000       20.08000       14.80000 0.30060
Cl        19.05000       19.04000       17.41000 0.30060
C         11.18000        8.33000       16.11000 -0.302700
H         11.42000        7.28000       15.95000 0.00070
Cl        10.20000        8.97000       14.72000 0.30060
Cl        10.52000        8.74000       17.75000 0.30060
Cl        12.83000        9.08000       16.03000 0.30060
C         14.80000        8.34000       10.40000 -0.302700
H         15.34000        7.39000       10.31000 0.00070
Cl        15.75000        9.33000       11.54000 0.30060
Cl        14.55000        9.25000        8.89000 0.30060
Cl        13.24000        7.91000       11.19000 0.30060
C          3.50000       13.85000        8.88000 -0.302700
H          3.86000       12.88000        8.55000 0.00070
Cl         1.88000       13.68000        9.54000 0.30060
Cl         4.68000       14.35000       10.19000 0.30060
Cl         3.72000       14.92000        7.46000 0.30060
C          4.03000        6.06000       12.80000 -0.302700
H          4.76000        6.18000       13.60000 0.00070
Cl         3.81000        4.36000       12.44000 0.30060
Cl         2.50000        6.81000       13.42000 0.30060
Cl         4.64000        6.93000       11.37000 0.30060
C         11.68000       21.59000        8.60000 -0.302700
H         11.44000       20.59000        8.24000 0.00070
Cl        10.11000       22.44000        8.81000 0.30060
Cl        12.35000       21.58000       10.27000 0.30060
Cl        12.67000       22.41000        7.42000 0.30060
C          2.59000       11.07000       14.14000 -0.302700
H          1.99000       10.43000       14.78000 0.00070
Cl         3.75000       11.85000       15.25000 0.30060
Cl         3.57000       10.32000       12.83000 0.30060
Cl         1.57000       12.33000       13.44000 0.30060
C         10.00000       13.38000       19.74000 -0.302700
H          9.04000       12.85000       19.71000 0.00070
Cl        11.18000       12.07000       20.12000 0.30060
Cl        10.26000       14.36000       18.27000 0.30060
Cl         9.75000       14.36000       21.23000 0.30060
C         18.20000       12.66000       10.01000 -0.302700
H         17.85000       11.72000       10.44000 0.00070
Cl        17.09000       12.86000        8.65000 0.30060
Cl        18.06000       14.05000       11.08000 0.30060
Cl        19.93000       12.58000        9.63000 0.30060
C          6.06000        6.30000       16.44000 -0.302700
H          6.70000        6.45000       17.31000 0.00070
Cl         6.98000        6.49000       14.93000 0.30060
Cl         5.47000        4.63000       16.43000 0.30060
Cl         4.68000        7.43000       16.46000 0.30060
C         16.35000       10.19000        3.75000 -0.302700
H         17.25000       10.70000        4.11000 0.00070
Cl        17.03000        9.29000        2.44000 0.30060
Cl        15.60000        9.19000        4.99000 0.30060
Cl        15.33000       11.52000        3.21000 0.30060
C         19.96000       13.74000        4.06000 -0.302700
H         21.00000       14.02000        3.86000 0.00070
Cl        19.64000       13.41000        5.75000 0.30060
Cl        18.82000       14.96000        3.52000 0.30060
Cl        19.80000       12.15000        3.18000 0.30060
C          1.47000        9.33000       10.19000 -0.302700
H          1.67000        8.72000       11.08000 0.00070
Cl         2.97000        9.87000        9.42000 0.30060
Cl         0.62000        8.36000        8.95000 0.30060
Cl         0.54000       10.79000       10.67000 0.30060
C          8.05000       12.76000       13.04000 -0.302700
H          9.04000       12.87000       12.59000 0.00070
Cl         7.26000       14.39000       13.18000 0.30060
Cl         7.14000       11.78000       11.81000 0.30060
Cl         8.20000       11.92000       14.64000 0.30060
C         21.70000        9.20000       12.98000 -0.302700
H         20.95000        8.95000       13.73000 0.00070
Cl        23.02000        8.11000       13.31000 0.30060
Cl        21.08000        8.97000       11.30000 0.30060
Cl        22.08000       10.89000       13.34000 0.30060
C          9.82000       17.81000       10.33000 -0.302700
H          8.80000       17.96000        9.97000 0.00070
Cl        10.99000       17.70000        9.01000 0.30060
Cl        10.02000       19.35000       11.27000 0.30060
Cl        10.02000       16.50000       11.45000 0.30060
C         15.07000       18.37000       17.59000 -0.302700
H         15.68000       17.56000       17.19000 0.00070
Cl        14.42000       17.65000       19.14000 0.30060
Cl        16.15000       19.72000       17.93000 0.30060
Cl        13.86000       18.83000       16.40000 0.30060
C          4.70000       18.97000       14.19000 -0.302700
H          3.61000       18.99000       14.29000 0.00070
Cl         5.48000       19.39000       15.71000 0.30060
Cl         4.93000       17.21000       13.84000 0.30060
Cl         5.04000       20.07000       12.85000 0.30060
C         17.68000        6.33000       14.65000 -0.302700
H         18.07000        6.28000       15.68000 0.00070
Cl        16.06000        6.98000       14.86000 0.30060
Cl        18.67000        7.59000       13.95000 0.30060
Cl        17.68000        4.85000       13.65000 0.30060
C         10.35000       18.45000       14.48000 -0.302700
H         10.53000       18.14000       13.45000 0.00070
Cl        11.25000       20.00000       14.63000 0.30060
Cl         8.59000       18.53000       14.62000 0.30060
Cl        11.10000       17.21000       15.47000 0.30060
C          7.15000       15.94000        4.02000 -0.302700
H          7.40000       16.99000        3.88000 0.00070
Cl         8.33000       14.85000        4.88000 0.30060
Cl         5.66000       15.82000        4.85000 0.30060
Cl         7.00000       15.36000        2.32000 0.30060
C         12.97000       14.78000        4.38000 -0.302700
H         12.44000       14.99000        3.44000 0.00070
Cl        12.77000       13.11000        4.90000 0.30060
Cl        14.64000       15.33000        4.24000 0.30060
Cl        12.12000       15.84000        5.56000 0.30060
C         14.30000        4.89000        7.48000 -0.302700
H         13.69000        4.53000        8.31000 0.00070
Cl        14.87000        3.57000        6.37000 0.30060
Cl        13.36000        6.11000        6.62000 0.30060
Cl        15.68000        5.80000        8.23000 0.30060
C         14.40000       14.06000       17.87000 -0.302700
H         13.62000       14.43000       18.54000 0.00070
Cl        14.15000       15.00000       16.33000 0.30060
Cl        16.07000       14.21000       18.53000 0.30060
Cl        13.88000       12.36000       17.52000 0.30060
C          8.92000       12.44000        8.68000 -0.302700
H          9.21000       13.18000        9.43000 0.00070
Cl         9.38000       10.86000        9.26000 0.30060
Cl         7.18000       12.50000        8.14000 0.30060
Cl         9.88000       12.72000        7.23000 0.30060
C         15.87000       18.50000       12.70000 -0.302700
H         16.07000       18.15000       11.69000 0.00070
Cl        16.65000       20.14000       12.82000 0.30060
Cl        14.14000       18.74000       12.80000 0.30060
Cl        16.50000       17.23000       13.90000 0.30060
C         13.16000        5.03000       14.92000 -0.302700
H         14.22000        5.12000       14.71000 0.00070
Cl        12.51000        3.41000       14.54000 0.30060
Cl        13.05000        5.36000       16.67000 0.30060
Cl        12.50000        6.32000       13.85000 0.30060

