%Mem = 2GB
%nproc=16
# b3lyp/6-31g* td 

Butadiene tddft 

0 1
C         12.24000       12.16000       11.01000 
H         11.90000       13.14000       11.33000 
C         11.19000       11.38000       10.35000 
H         11.41000       10.35000       10.09000 
C          9.94000       11.89000       10.02000 
H          9.74000       12.93000       10.27000 
H          9.26000       11.28000        9.43000 
C         13.44000       11.62000       11.34000 
H         13.71000       10.61000       11.05000 
H         14.17000       12.17000       11.92000 
  
C          2.96000       13.85000        9.36000 -0.302700
H          3.22000       12.80000        9.52000 0.00070
Cl         3.23000       14.69000       10.91000 0.30060
Cl         4.04000       14.49000        8.14000 0.30060
Cl         1.24000       14.02000        8.90000 0.30060
C         21.49000       10.80000        9.55000 -0.302700
H         20.59000       10.22000        9.33000 0.00070
Cl        22.27000       10.10000       10.99000 0.30060
Cl        22.75000       10.66000        8.21000 0.30060
Cl        21.02000       12.49000        9.83000 0.30060
C         16.80000       19.37000       15.51000 -0.302700
H         17.07000       20.33000       15.07000 0.00070
Cl        17.38000       18.07000       14.45000 0.30060
Cl        17.45000       19.11000       17.15000 0.30060
Cl        15.05000       19.23000       15.50000 0.30060
C         13.31000        5.38000       14.86000 -0.302700
H         13.36000        6.12000       15.66000 0.00070
Cl        13.06000        3.77000       15.64000 0.30060
Cl        12.06000        5.97000       13.70000 0.30060
Cl        14.95000        5.38000       14.18000 0.30060
C          9.27000        4.52000       10.96000 -0.302700
H         10.20000        4.13000       11.41000 0.00070
Cl         7.99000        3.28000       10.83000 0.30060
Cl         8.65000        5.90000       11.92000 0.30060
Cl         9.51000        5.26000        9.32000 0.30060
C          4.84000        4.84000        9.80000 -0.302700
H          5.86000        5.17000        9.59000 0.00070
Cl         4.65000        5.29000       11.58000 0.30060
Cl         3.81000        5.76000        8.66000 0.30060
Cl         4.80000        3.06000        9.57000 0.30060
C         14.88000        4.34000        9.57000 -0.302700
H         15.49000        3.61000       10.11000 0.00070
Cl        15.00000        3.83000        7.82000 0.30060
Cl        13.14000        4.22000       10.06000 0.30060
Cl        15.48000        5.98000        9.82000 0.30060
C         20.05000       16.74000       10.93000 -0.302700
H         19.40000       17.21000       10.19000 0.00070
Cl        19.20000       15.32000       11.55000 0.30060
Cl        21.46000       16.14000       10.03000 0.30060
Cl        20.44000       18.06000       12.10000 0.30060
C          8.65000        9.63000       14.17000 -0.302700
H          9.47000        8.96000       13.90000 0.00070
Cl         7.16000        8.71000       14.12000 0.30060
Cl         8.84000       10.28000       15.81000 0.30060
Cl         8.74000       10.97000       12.98000 0.30060
C         16.90000       14.58000       18.88000 -0.302700
H         17.08000       13.71000       18.26000 0.00070
Cl        17.39000       14.06000       20.55000 0.30060
Cl        17.79000       15.97000       18.27000 0.30060
Cl        15.12000       14.86000       18.92000 0.30060
C          6.83000       12.34000        5.97000 -0.302700
H          5.89000       11.78000        6.01000 0.00070
Cl         6.52000       13.93000        5.14000 0.30060
Cl         7.44000       12.34000        7.59000 0.30060
Cl         7.95000       11.34000        5.06000 0.30060
C         20.25000        6.53000        7.73000 -0.302700
H         19.70000        5.74000        7.23000 0.00070
Cl        19.26000        8.00000        7.52000 0.30060
Cl        20.51000        6.00000        9.40000 0.30060
Cl        21.83000        6.67000        6.89000 0.30060
C         12.43000       19.89000        4.77000 -0.302700
H         11.54000       19.41000        5.18000 0.00070
Cl        12.19000       20.18000        2.99000 0.30060
Cl        12.79000       21.40000        5.71000 0.30060
Cl        13.64000       18.64000        5.16000 0.30060
C          5.49000       17.80000        8.94000 -0.302700
H          4.55000       17.29000        8.73000 0.00070
Cl         6.01000       17.09000       10.62000 0.30060
Cl         6.63000       17.48000        7.66000 0.30060
Cl         5.07000       19.55000        9.38000 0.30060
C          2.26000        7.67000       11.46000 -0.302700
H          3.11000        7.24000       10.93000 0.00070
Cl         1.86000        9.17000       10.73000 0.30060
Cl         0.81000        6.57000       11.41000 0.30060
Cl         2.76000        7.92000       13.19000 0.30060
C         12.06000       12.76000        7.30000 -0.302700
H         12.10000       12.72000        8.39000 0.00070
Cl        13.58000       13.39000        6.68000 0.30060
Cl        11.83000       10.99000        6.98000 0.30060
Cl        10.66000       13.79000        6.92000 0.30060
C          9.25000        8.27000       20.90000 -0.302700
H         10.23000        7.87000       21.17000 0.00070
Cl         9.47000        9.98000       21.41000 0.30060
Cl         9.09000        8.25000       19.10000 0.30060
Cl         7.89000        7.69000       21.83000 0.30060
C          9.02000       19.63000       10.97000 -0.302700
H          9.96000       19.96000       11.40000 0.00070
Cl         7.57000       20.00000       11.92000 0.30060
Cl         8.80000       20.15000        9.27000 0.30060
Cl         9.29000       17.86000       10.86000 0.30060
C         14.28000        8.29000       19.34000 -0.302700
H         14.96000        9.15000       19.45000 0.00070
Cl        14.42000        7.55000       17.72000 0.30060
Cl        14.63000        7.14000       20.65000 0.30060
Cl        12.66000        8.91000       19.67000 0.30060
C          5.08000        9.92000       18.69000 -0.302700
H          6.10000       10.33000       18.73000 0.00070
Cl         5.01000        9.51000       16.99000 0.30060
Cl         5.18000        8.44000       19.78000 0.30060
Cl         3.88000       11.21000       19.20000 0.30060
C         11.00000       14.08000        3.25000 -0.302700
H         10.33000       14.09000        4.11000 0.00070
Cl        10.08000       13.95000        1.74000 0.30060
Cl        11.98000       15.59000        3.34000 0.30060
Cl        11.99000       12.63000        3.59000 0.30060
C          6.63000        3.63000        5.53000 -0.302700
H          7.54000        3.43000        4.97000 0.00070
Cl         5.74000        5.11000        4.95000 0.30060
Cl         5.61000        2.15000        5.57000 0.30060
Cl         7.22000        4.05000        7.15000 0.30060
C         14.81000        9.75000        4.45000 -0.302700
H         14.38000       10.75000        4.58000 0.00070
Cl        16.57000        9.89000        4.40000 0.30060
Cl        14.45000        8.64000        5.78000 0.30060
Cl        14.23000        9.17000        2.87000 0.30060
C          5.31000       11.98000       13.47000 -0.302700
H          6.02000       11.40000       14.06000 0.00070
Cl         4.50000       10.87000       12.32000 0.30060
Cl         4.09000       12.56000       14.65000 0.30060
Cl         6.21000       13.36000       12.68000 0.30060
C         17.45000       15.01000        2.73000 -0.302700
H         17.86000       15.80000        2.09000 0.00070
Cl        18.37000       14.90000        4.26000 0.30060
Cl        15.75000       15.47000        3.03000 0.30060
Cl        17.38000       13.59000        1.72000 0.30060
C         15.49000       17.02000        8.30000 -0.302700
H         15.70000       17.57000        7.38000 0.00070
Cl        16.58000       15.61000        8.44000 0.30060
Cl        16.07000       18.10000        9.60000 0.30060
Cl        13.81000       16.57000        8.54000 0.30060
C         13.48000       19.65000       11.40000 -0.302700
H         14.13000       18.81000       11.66000 0.00070
Cl        12.48000       19.02000       10.05000 0.30060
Cl        12.40000       19.86000       12.85000 0.30060
Cl        14.33000       21.18000       11.06000 0.30060
C         18.73000        4.26000       13.00000 -0.302700
H         18.90000        3.73000       13.93000 0.00070
Cl        17.63000        3.25000       12.01000 0.30060
Cl        18.08000        5.87000       13.36000 0.30060
Cl        20.38000        4.26000       12.32000 0.30060
C          6.97000        8.31000        8.15000 -0.302700
H          6.85000        7.24000        8.00000 0.00070
Cl         5.54000        9.18000        7.57000 0.30060
Cl         7.08000        8.56000        9.92000 0.30060
Cl         8.38000        8.98000        7.30000 0.30060
C          9.29000       16.71000       14.37000 -0.302700
H          9.43000       16.57000       13.30000 0.00070
Cl         7.70000       17.44000       14.56000 0.30060
Cl         9.41000       15.10000       15.26000 0.30060
Cl        10.57000       17.86000       14.93000 0.30060
C          9.30000        6.35000        3.35000 -0.302700
H         10.21000        6.46000        2.76000 0.00070
Cl         8.42000        5.00000        2.74000 0.30060
Cl         9.86000        5.91000        4.97000 0.30060
Cl         8.30000        7.84000        3.26000 0.30060
C         12.30000       11.30000       16.23000 -0.302700
H         11.47000       11.54000       16.90000 0.00070
Cl        12.31000       12.56000       14.97000 0.30060
Cl        13.76000       11.50000       17.21000 0.30060
Cl        12.28000        9.68000       15.50000 0.30060
C          7.44000       18.59000        3.73000 -0.302700
H          7.48000       18.69000        4.81000 0.00070
Cl         5.73000       18.88000        3.37000 0.30060
Cl         8.44000       19.89000        3.10000 0.30060
Cl         7.92000       17.00000        3.09000 0.30060
C          7.18000       14.26000       18.75000 -0.302700
H          7.12000       15.24000       18.25000 0.00070
Cl         8.82000       13.77000       18.96000 0.30060
Cl         6.31000       14.15000       20.32000 0.30060
Cl         6.50000       13.06000       17.55000 0.30060
C         18.29000        9.67000       19.39000 -0.302700
H         18.93000        8.86000       19.04000 0.00070
Cl        17.06000       10.03000       18.16000 0.30060
Cl        17.46000        9.32000       20.94000 0.30060
Cl        19.27000       11.16000       19.74000 0.30060
C         17.60000       10.00000       11.71000 -0.302700
H         18.60000       10.01000       12.15000 0.00070
Cl        16.30000        9.89000       12.93000 0.30060
Cl        17.33000       11.58000       10.80000 0.30060
Cl        17.56000        8.60000       10.62000 0.30060
C         14.64000       15.91000       13.63000 -0.302700
H         15.04000       16.90000       13.87000 0.00070
Cl        12.88000       15.92000       13.77000 0.30060
Cl        15.17000       15.58000       11.95000 0.30060
Cl        15.15000       14.56000       14.66000 0.30060
C          6.84000        4.37000       16.58000 -0.302700
H          6.76000        3.49000       17.21000 0.00070
Cl         8.56000        4.52000       16.30000 0.30060
Cl         5.99000        3.89000       15.06000 0.30060
Cl         6.12000        5.80000       17.46000 0.30060

%Mem = 2GB
%nproc=16
# b3lyp/6-31g* td 

Butadiene tddft 

0 1
C         12.24000       12.16000       11.01000 
H         11.90000       13.14000       11.33000 
C         11.19000       11.38000       10.35000 
H         11.41000       10.35000       10.09000 
C          9.94000       11.89000       10.02000 
H          9.74000       12.93000       10.27000 
H          9.26000       11.28000        9.43000 
C         13.44000       11.62000       11.34000 
H         13.71000       10.61000       11.05000 
H         14.17000       12.17000       11.92000 
  
C          2.96000       13.85000        9.36000 -0.302700
H          3.22000       12.80000        9.52000 0.00070
Cl         3.23000       14.69000       10.91000 0.30060
Cl         4.04000       14.49000        8.14000 0.30060
Cl         1.24000       14.02000        8.90000 0.30060
C         21.49000       10.80000        9.55000 -0.302700
H         20.59000       10.22000        9.33000 0.00070
Cl        22.27000       10.10000       10.99000 0.30060
Cl        22.75000       10.66000        8.21000 0.30060
Cl        21.02000       12.49000        9.83000 0.30060
C         16.80000       19.37000       15.51000 -0.302700
H         17.07000       20.33000       15.07000 0.00070
Cl        17.38000       18.07000       14.45000 0.30060
Cl        17.45000       19.11000       17.15000 0.30060
Cl        15.05000       19.23000       15.50000 0.30060
C         13.31000        5.38000       14.86000 -0.302700
H         13.36000        6.12000       15.66000 0.00070
Cl        13.06000        3.77000       15.64000 0.30060
Cl        12.06000        5.97000       13.70000 0.30060
Cl        14.95000        5.38000       14.18000 0.30060
C          9.27000        4.52000       10.96000 -0.302700
H         10.20000        4.13000       11.41000 0.00070
Cl         7.99000        3.28000       10.83000 0.30060
Cl         8.65000        5.90000       11.92000 0.30060
Cl         9.51000        5.26000        9.32000 0.30060
C          4.84000        4.84000        9.80000 -0.302700
H          5.86000        5.17000        9.59000 0.00070
Cl         4.65000        5.29000       11.58000 0.30060
Cl         3.81000        5.76000        8.66000 0.30060
Cl         4.80000        3.06000        9.57000 0.30060
C         14.88000        4.34000        9.57000 -0.302700
H         15.49000        3.61000       10.11000 0.00070
Cl        15.00000        3.83000        7.82000 0.30060
Cl        13.14000        4.22000       10.06000 0.30060
Cl        15.48000        5.98000        9.82000 0.30060
C         20.05000       16.74000       10.93000 -0.302700
H         19.40000       17.21000       10.19000 0.00070
Cl        19.20000       15.32000       11.55000 0.30060
Cl        21.46000       16.14000       10.03000 0.30060
Cl        20.44000       18.06000       12.10000 0.30060
C          8.65000        9.63000       14.17000 -0.302700
H          9.47000        8.96000       13.90000 0.00070
Cl         7.16000        8.71000       14.12000 0.30060
Cl         8.84000       10.28000       15.81000 0.30060
Cl         8.74000       10.97000       12.98000 0.30060
C         16.90000       14.58000       18.88000 -0.302700
H         17.08000       13.71000       18.26000 0.00070
Cl        17.39000       14.06000       20.55000 0.30060
Cl        17.79000       15.97000       18.27000 0.30060
Cl        15.12000       14.86000       18.92000 0.30060
C          6.83000       12.34000        5.97000 -0.302700
H          5.89000       11.78000        6.01000 0.00070
Cl         6.52000       13.93000        5.14000 0.30060
Cl         7.44000       12.34000        7.59000 0.30060
Cl         7.95000       11.34000        5.06000 0.30060
C         20.25000        6.53000        7.73000 -0.302700
H         19.70000        5.74000        7.23000 0.00070
Cl        19.26000        8.00000        7.52000 0.30060
Cl        20.51000        6.00000        9.40000 0.30060
Cl        21.83000        6.67000        6.89000 0.30060
C         12.43000       19.89000        4.77000 -0.302700
H         11.54000       19.41000        5.18000 0.00070
Cl        12.19000       20.18000        2.99000 0.30060
Cl        12.79000       21.40000        5.71000 0.30060
Cl        13.64000       18.64000        5.16000 0.30060
C          5.49000       17.80000        8.94000 -0.302700
H          4.55000       17.29000        8.73000 0.00070
Cl         6.01000       17.09000       10.62000 0.30060
Cl         6.63000       17.48000        7.66000 0.30060
Cl         5.07000       19.55000        9.38000 0.30060
C          2.26000        7.67000       11.46000 -0.302700
H          3.11000        7.24000       10.93000 0.00070
Cl         1.86000        9.17000       10.73000 0.30060
Cl         0.81000        6.57000       11.41000 0.30060
Cl         2.76000        7.92000       13.19000 0.30060
C         12.06000       12.76000        7.30000 -0.302700
H         12.10000       12.72000        8.39000 0.00070
Cl        13.58000       13.39000        6.68000 0.30060
Cl        11.83000       10.99000        6.98000 0.30060
Cl        10.66000       13.79000        6.92000 0.30060
C          9.25000        8.27000       20.90000 -0.302700
H         10.23000        7.87000       21.17000 0.00070
Cl         9.47000        9.98000       21.41000 0.30060
Cl         9.09000        8.25000       19.10000 0.30060
Cl         7.89000        7.69000       21.83000 0.30060
C          9.02000       19.63000       10.97000 -0.302700
H          9.96000       19.96000       11.40000 0.00070
Cl         7.57000       20.00000       11.92000 0.30060
Cl         8.80000       20.15000        9.27000 0.30060
Cl         9.29000       17.86000       10.86000 0.30060
C         14.28000        8.29000       19.34000 -0.302700
H         14.96000        9.15000       19.45000 0.00070
Cl        14.42000        7.55000       17.72000 0.30060
Cl        14.63000        7.14000       20.65000 0.30060
Cl        12.66000        8.91000       19.67000 0.30060
C          5.08000        9.92000       18.69000 -0.302700
H          6.10000       10.33000       18.73000 0.00070
Cl         5.01000        9.51000       16.99000 0.30060
Cl         5.18000        8.44000       19.78000 0.30060
Cl         3.88000       11.21000       19.20000 0.30060
C         11.00000       14.08000        3.25000 -0.302700
H         10.33000       14.09000        4.11000 0.00070
Cl        10.08000       13.95000        1.74000 0.30060
Cl        11.98000       15.59000        3.34000 0.30060
Cl        11.99000       12.63000        3.59000 0.30060
C          6.63000        3.63000        5.53000 -0.302700
H          7.54000        3.43000        4.97000 0.00070
Cl         5.74000        5.11000        4.95000 0.30060
Cl         5.61000        2.15000        5.57000 0.30060
Cl         7.22000        4.05000        7.15000 0.30060
C         14.81000        9.75000        4.45000 -0.302700
H         14.38000       10.75000        4.58000 0.00070
Cl        16.57000        9.89000        4.40000 0.30060
Cl        14.45000        8.64000        5.78000 0.30060
Cl        14.23000        9.17000        2.87000 0.30060
C          5.31000       11.98000       13.47000 -0.302700
H          6.02000       11.40000       14.06000 0.00070
Cl         4.50000       10.87000       12.32000 0.30060
Cl         4.09000       12.56000       14.65000 0.30060
Cl         6.21000       13.36000       12.68000 0.30060
C         17.45000       15.01000        2.73000 -0.302700
H         17.86000       15.80000        2.09000 0.00070
Cl        18.37000       14.90000        4.26000 0.30060
Cl        15.75000       15.47000        3.03000 0.30060
Cl        17.38000       13.59000        1.72000 0.30060
C         15.49000       17.02000        8.30000 -0.302700
H         15.70000       17.57000        7.38000 0.00070
Cl        16.58000       15.61000        8.44000 0.30060
Cl        16.07000       18.10000        9.60000 0.30060
Cl        13.81000       16.57000        8.54000 0.30060
C         13.48000       19.65000       11.40000 -0.302700
H         14.13000       18.81000       11.66000 0.00070
Cl        12.48000       19.02000       10.05000 0.30060
Cl        12.40000       19.86000       12.85000 0.30060
Cl        14.33000       21.18000       11.06000 0.30060
C         18.73000        4.26000       13.00000 -0.302700
H         18.90000        3.73000       13.93000 0.00070
Cl        17.63000        3.25000       12.01000 0.30060
Cl        18.08000        5.87000       13.36000 0.30060
Cl        20.38000        4.26000       12.32000 0.30060
C          6.97000        8.31000        8.15000 -0.302700
H          6.85000        7.24000        8.00000 0.00070
Cl         5.54000        9.18000        7.57000 0.30060
Cl         7.08000        8.56000        9.92000 0.30060
Cl         8.38000        8.98000        7.30000 0.30060
C          9.29000       16.71000       14.37000 -0.302700
H          9.43000       16.57000       13.30000 0.00070
Cl         7.70000       17.44000       14.56000 0.30060
Cl         9.41000       15.10000       15.26000 0.30060
Cl        10.57000       17.86000       14.93000 0.30060
C          9.30000        6.35000        3.35000 -0.302700
H         10.21000        6.46000        2.76000 0.00070
Cl         8.42000        5.00000        2.74000 0.30060
Cl         9.86000        5.91000        4.97000 0.30060
Cl         8.30000        7.84000        3.26000 0.30060
C         12.30000       11.30000       16.23000 -0.302700
H         11.47000       11.54000       16.90000 0.00070
Cl        12.31000       12.56000       14.97000 0.30060
Cl        13.76000       11.50000       17.21000 0.30060
Cl        12.28000        9.68000       15.50000 0.30060
C          7.44000       18.59000        3.73000 -0.302700
H          7.48000       18.69000        4.81000 0.00070
Cl         5.73000       18.88000        3.37000 0.30060
Cl         8.44000       19.89000        3.10000 0.30060
Cl         7.92000       17.00000        3.09000 0.30060
C          7.18000       14.26000       18.75000 -0.302700
H          7.12000       15.24000       18.25000 0.00070
Cl         8.82000       13.77000       18.96000 0.30060
Cl         6.31000       14.15000       20.32000 0.30060
Cl         6.50000       13.06000       17.55000 0.30060
C         18.29000        9.67000       19.39000 -0.302700
H         18.93000        8.86000       19.04000 0.00070
Cl        17.06000       10.03000       18.16000 0.30060
Cl        17.46000        9.32000       20.94000 0.30060
Cl        19.27000       11.16000       19.74000 0.30060
C         17.60000       10.00000       11.71000 -0.302700
H         18.60000       10.01000       12.15000 0.00070
Cl        16.30000        9.89000       12.93000 0.30060
Cl        17.33000       11.58000       10.80000 0.30060
Cl        17.56000        8.60000       10.62000 0.30060
C         14.64000       15.91000       13.63000 -0.302700
H         15.04000       16.90000       13.87000 0.00070
Cl        12.88000       15.92000       13.77000 0.30060
Cl        15.17000       15.58000       11.95000 0.30060
Cl        15.15000       14.56000       14.66000 0.30060
C          6.84000        4.37000       16.58000 -0.302700
H          6.76000        3.49000       17.21000 0.00070
Cl         8.56000        4.52000       16.30000 0.30060
Cl         5.99000        3.89000       15.06000 0.30060
Cl         6.12000        5.80000       17.46000 0.30060

