%Mem = 2GB
%nproc=16
# b3lyp/6-31g* td 

Butadiene tddft 

0 1
C         10.49000       10.47000       10.74000 
H         10.35000        9.51000       10.24000 
C         11.24000       10.44000       12.05000 
H         11.43000       11.41000       12.50000 
C         11.93000        9.34000       12.33000 
H         11.86000        8.56000       11.59000 
H         12.62000        9.36000       13.18000 
C          9.97000       11.58000       10.18000 
H         10.11000       12.59000       10.56000 
H          9.50000       11.58000        9.20000 
  
C          2.59000       15.44000       10.30000 -0.302700
H          1.81000       16.16000       10.56000 0.00070
Cl         2.19000       15.14000        8.57000 0.30060
Cl         4.21000       16.20000       10.41000 0.30060
Cl         2.42000       13.87000       11.07000 0.30060
C         21.39000       13.39000       11.90000 -0.302700
H         21.88000       13.46000       10.92000 0.00070
Cl        22.56000       12.45000       12.83000 0.30060
Cl        20.99000       14.99000       12.42000 0.30060
Cl        20.02000       12.26000       11.61000 0.30060
C          7.88000       16.89000       18.11000 -0.302700
H          8.77000       16.34000       17.78000 0.00070
Cl         6.56000       16.82000       16.85000 0.30060
Cl         7.29000       15.97000       19.50000 0.30060
Cl         8.43000       18.58000       18.39000 0.30060
C          8.82000        6.37000        3.67000 -0.302700
H          8.28000        7.26000        4.01000 0.00070
Cl         8.22000        6.01000        2.01000 0.30060
Cl        10.53000        6.80000        3.65000 0.30060
Cl         8.46000        4.98000        4.85000 0.30060
C          5.21000       19.04000        8.68000 -0.302700
H          5.60000       18.60000        9.61000 0.00070
Cl         3.99000       20.27000        9.11000 0.30060
Cl         6.61000       19.76000        7.90000 0.30060
Cl         4.52000       17.92000        7.56000 0.30060
C          7.20000        4.88000       12.76000 -0.302700
H          8.24000        5.10000       13.00000 0.00070
Cl         6.16000        4.89000       14.21000 0.30060
Cl         6.67000        6.05000       11.57000 0.30060
Cl         7.11000        3.28000       11.97000 0.30060
C         13.62000        7.64000       17.02000 -0.302700
H         12.72000        7.06000       16.81000 0.00070
Cl        13.85000        8.64000       15.53000 0.30060
Cl        13.45000        8.52000       18.51000 0.30060
Cl        14.95000        6.49000       17.11000 0.30060
C         10.69000        8.72000       21.76000 -0.302700
H         10.22000        9.38000       21.03000 0.00070
Cl        12.26000        9.43000       22.36000 0.30060
Cl         9.61000        8.51000       23.17000 0.30060
Cl        10.75000        7.32000       20.66000 0.30060
C         18.36000        4.73000        8.24000 -0.302700
H         18.35000        5.40000        9.11000 0.00070
Cl        19.95000        3.94000        8.28000 0.30060
Cl        17.03000        3.66000        8.63000 0.30060
Cl        18.03000        5.80000        6.79000 0.30060
C         15.42000       12.46000       14.67000 -0.302700
H         14.72000       13.17000       15.12000 0.00070
Cl        16.54000       13.51000       13.78000 0.30060
Cl        16.38000       11.66000       15.82000 0.30060
Cl        14.41000       11.44000       13.63000 0.30060
C          8.24000        7.19000       15.87000 -0.302700
H          7.85000        6.19000       15.68000 0.00070
Cl         6.93000        8.13000       16.61000 0.30060
Cl         9.52000        7.05000       17.09000 0.30060
Cl         8.87000        7.80000       14.29000 0.30060
C         10.25000        7.73000        7.71000 -0.302700
H         10.14000        7.16000        6.78000 0.00070
Cl        11.64000        7.09000        8.52000 0.30060
Cl        10.66000        9.40000        7.40000 0.30060
Cl         8.79000        7.68000        8.71000 0.30060
C          2.36000       10.82000        7.63000 -0.302700
H          2.69000        9.78000        7.49000 0.00070
Cl         0.99000       11.10000        8.72000 0.30060
Cl         3.73000       11.71000        8.37000 0.30060
Cl         2.06000       11.48000        6.00000 0.30060
C         14.21000       17.53000        4.99000 -0.302700
H         13.86000       17.68000        6.01000 0.00070
Cl        13.70000       18.99000        4.11000 0.30060
Cl        15.98000       17.10000        4.65000 0.30060
Cl        13.14000       16.30000        4.27000 0.30060
C         10.43000       17.19000        9.01000 -0.302700
H          9.64000       16.56000        8.59000 0.00070
Cl        11.11000       18.29000        7.77000 0.30060
Cl         9.72000       18.13000       10.30000 0.30060
Cl        11.73000       16.13000        9.56000 0.30060
C          6.49000       12.26000       19.52000 -0.302700
H          5.60000       12.90000       19.49000 0.00070
Cl         7.24000       12.02000       21.13000 0.30060
Cl         5.94000       10.66000       18.92000 0.30060
Cl         7.81000       12.86000       18.47000 0.30060
C         15.15000       12.96000       10.31000 -0.302700
H         14.88000       13.40000       11.27000 0.00070
Cl        13.54000       12.53000        9.69000 0.30060
Cl        15.78000       14.28000        9.25000 0.30060
Cl        16.35000       11.65000       10.34000 0.30060
C         14.39000       20.74000        8.15000 -0.302700
H         14.71000       21.52000        8.85000 0.00070
Cl        12.90000       21.20000        7.33000 0.30060
Cl        15.62000       20.48000        6.90000 0.30060
Cl        14.24000       19.33000        9.26000 0.30060
C         14.66000        7.50000        4.77000 -0.302700
H         14.87000        8.40000        5.35000 0.00070
Cl        16.07000        6.78000        4.07000 0.30060
Cl        13.96000        6.45000        5.90000 0.30060
Cl        13.52000        8.02000        3.54000 0.30060
C         14.55000       12.06000        5.41000 -0.302700
H         14.57000       13.00000        5.96000 0.00070
Cl        12.93000       11.31000        5.74000 0.30060
Cl        14.53000       12.41000        3.67000 0.30060
Cl        15.96000       11.01000        5.84000 0.30060
C         20.06000        9.04000        9.03000 -0.302700
H         20.03000        9.77000        9.85000 0.00070
Cl        21.58000        9.27000        8.17000 0.30060
Cl        19.98000        7.30000        9.59000 0.30060
Cl        18.69000        9.31000        8.00000 0.30060
C          4.37000        9.72000       13.53000 -0.302700
H          5.45000        9.63000       13.71000 0.00070
Cl         3.76000        8.05000       13.60000 0.30060
Cl         3.65000       10.79000       14.78000 0.30060
Cl         4.14000       10.25000       11.85000 0.30060
C         18.59000       13.45000        7.37000 -0.302700
H         17.82000       12.81000        7.81000 0.00070
Cl        20.02000       12.38000        7.24000 0.30060
Cl        18.12000       14.09000        5.75000 0.30060
Cl        19.10000       14.66000        8.60000 0.30060
C         18.98000       18.18000       11.27000 -0.302700
H         18.92000       19.26000       11.13000 0.00070
Cl        20.68000       17.75000       10.79000 0.30060
Cl        18.44000       17.92000       13.02000 0.30060
Cl        17.76000       17.50000       10.13000 0.30060
C         18.49000        6.74000       13.47000 -0.302700
H         19.07000        7.52000       13.97000 0.00070
Cl        19.59000        5.44000       12.77000 0.30060
Cl        17.30000        6.18000       14.70000 0.30060
Cl        17.49000        7.50000       12.24000 0.30060
C          6.65000       14.28000        8.75000 -0.302700
H          5.65000       14.72000        8.71000 0.00070
Cl         7.30000       13.97000        7.15000 0.30060
Cl         7.64000       15.41000        9.72000 0.30060
Cl         6.30000       12.91000        9.90000 0.30060
C          4.86000        8.93000        2.17000 -0.302700
H          4.17000        9.75000        2.38000 0.00070
Cl         4.04000        7.52000        2.88000 0.30060
Cl         5.01000        8.80000        0.39000 0.30060
Cl         6.45000        9.07000        2.95000 0.30060
C         12.43000       16.72000       18.64000 -0.302700
H         12.37000       17.12000       19.65000 0.00070
Cl        11.26000       15.35000       18.47000 0.30060
Cl        11.99000       18.09000       17.51000 0.30060
Cl        14.10000       16.08000       18.29000 0.30060
C          2.02000       16.10000       14.45000 -0.302700
H          1.50000       15.19000       14.75000 0.00070
Cl         2.25000       17.16000       15.88000 0.30060
Cl         3.59000       15.51000       13.86000 0.30060
Cl         1.03000       16.92000       13.14000 0.30060
C         15.26000        3.26000       12.86000 -0.302700
H         14.76000        2.43000       12.35000 0.00070
Cl        14.77000        3.18000       14.63000 0.30060
Cl        17.05000        3.15000       12.91000 0.30060
Cl        14.77000        4.73000       12.06000 0.30060
C          8.16000       13.50000       14.07000 -0.302700
H          8.92000       12.91000       13.55000 0.00070
Cl         8.81000       14.08000       15.59000 0.30060
Cl         7.68000       14.79000       13.06000 0.30060
Cl         6.67000       12.61000       14.48000 0.30060
C          3.62000       13.91000        3.75000 -0.302700
H          2.95000       13.06000        3.86000 0.00070
Cl         3.99000       14.32000        5.43000 0.30060
Cl         5.08000       13.15000        3.02000 0.30060
Cl         2.91000       15.21000        2.74000 0.30060
C          9.88000       11.40000        2.93000 -0.302700
H         10.47000       12.30000        2.79000 0.00070
Cl         8.39000       11.47000        1.96000 0.30060
Cl        10.85000       10.03000        2.42000 0.30060
Cl         9.53000       11.27000        4.70000 0.30060
C         10.78000        2.88000        8.12000 -0.302700
H         10.84000        2.03000        8.80000 0.00070
Cl        10.52000        2.06000        6.57000 0.30060
Cl         9.38000        3.83000        8.59000 0.30060
Cl        12.33000        3.80000        8.23000 0.30060
C         11.35000       11.63000       17.70000 -0.302700
H         10.71000       12.47000       17.42000 0.00070
Cl        13.01000       12.27000       17.57000 0.30060
Cl        10.82000       11.24000       19.31000 0.30060
Cl        10.91000       10.37000       16.46000 0.30060
C          5.43000        7.60000        7.66000 -0.302700
H          6.13000        7.96000        8.42000 0.00070
Cl         6.13000        6.08000        7.16000 0.30060
Cl         3.75000        7.34000        8.32000 0.30060
Cl         5.59000        8.90000        6.45000 0.30060
C         20.66000       10.13000       16.38000 -0.302700
H         21.58000       10.57000       15.99000 0.00070
Cl        19.42000       10.27000       15.07000 0.30060
Cl        20.96000        8.54000       17.01000 0.30060
Cl        20.20000       11.19000       17.73000 0.30060
C         11.93000       16.14000       13.21000 -0.302700
H         11.06000       16.59000       12.72000 0.00070
Cl        13.41000       16.84000       12.53000 0.30060
Cl        11.69000       16.15000       14.97000 0.30060
Cl        11.81000       14.47000       12.61000 0.30060
C         11.12000        3.77000       14.54000 -0.302700
H         12.07000        3.27000       14.72000 0.00070
Cl         9.90000        3.15000       15.62000 0.30060
Cl        11.43000        5.49000       15.06000 0.30060
Cl        10.69000        3.60000       12.80000 0.30060

%Mem = 2GB
%nproc=16
# b3lyp/6-31g* td 

Butadiene tddft 

0 1
C         10.49000       10.47000       10.74000 
H         10.35000        9.51000       10.24000 
C         11.24000       10.44000       12.05000 
H         11.43000       11.41000       12.50000 
C         11.93000        9.34000       12.33000 
H         11.86000        8.56000       11.59000 
H         12.62000        9.36000       13.18000 
C          9.97000       11.58000       10.18000 
H         10.11000       12.59000       10.56000 
H          9.50000       11.58000        9.20000 
  
C          2.59000       15.44000       10.30000 -0.302700
H          1.81000       16.16000       10.56000 0.00070
Cl         2.19000       15.14000        8.57000 0.30060
Cl         4.21000       16.20000       10.41000 0.30060
Cl         2.42000       13.87000       11.07000 0.30060
C         21.39000       13.39000       11.90000 -0.302700
H         21.88000       13.46000       10.92000 0.00070
Cl        22.56000       12.45000       12.83000 0.30060
Cl        20.99000       14.99000       12.42000 0.30060
Cl        20.02000       12.26000       11.61000 0.30060
C          7.88000       16.89000       18.11000 -0.302700
H          8.77000       16.34000       17.78000 0.00070
Cl         6.56000       16.82000       16.85000 0.30060
Cl         7.29000       15.97000       19.50000 0.30060
Cl         8.43000       18.58000       18.39000 0.30060
C          8.82000        6.37000        3.67000 -0.302700
H          8.28000        7.26000        4.01000 0.00070
Cl         8.22000        6.01000        2.01000 0.30060
Cl        10.53000        6.80000        3.65000 0.30060
Cl         8.46000        4.98000        4.85000 0.30060
C          5.21000       19.04000        8.68000 -0.302700
H          5.60000       18.60000        9.61000 0.00070
Cl         3.99000       20.27000        9.11000 0.30060
Cl         6.61000       19.76000        7.90000 0.30060
Cl         4.52000       17.92000        7.56000 0.30060
C          7.20000        4.88000       12.76000 -0.302700
H          8.24000        5.10000       13.00000 0.00070
Cl         6.16000        4.89000       14.21000 0.30060
Cl         6.67000        6.05000       11.57000 0.30060
Cl         7.11000        3.28000       11.97000 0.30060
C         13.62000        7.64000       17.02000 -0.302700
H         12.72000        7.06000       16.81000 0.00070
Cl        13.85000        8.64000       15.53000 0.30060
Cl        13.45000        8.52000       18.51000 0.30060
Cl        14.95000        6.49000       17.11000 0.30060
C         10.69000        8.72000       21.76000 -0.302700
H         10.22000        9.38000       21.03000 0.00070
Cl        12.26000        9.43000       22.36000 0.30060
Cl         9.61000        8.51000       23.17000 0.30060
Cl        10.75000        7.32000       20.66000 0.30060
C         18.36000        4.73000        8.24000 -0.302700
H         18.35000        5.40000        9.11000 0.00070
Cl        19.95000        3.94000        8.28000 0.30060
Cl        17.03000        3.66000        8.63000 0.30060
Cl        18.03000        5.80000        6.79000 0.30060
C         15.42000       12.46000       14.67000 -0.302700
H         14.72000       13.17000       15.12000 0.00070
Cl        16.54000       13.51000       13.78000 0.30060
Cl        16.38000       11.66000       15.82000 0.30060
Cl        14.41000       11.44000       13.63000 0.30060
C          8.24000        7.19000       15.87000 -0.302700
H          7.85000        6.19000       15.68000 0.00070
Cl         6.93000        8.13000       16.61000 0.30060
Cl         9.52000        7.05000       17.09000 0.30060
Cl         8.87000        7.80000       14.29000 0.30060
C         10.25000        7.73000        7.71000 -0.302700
H         10.14000        7.16000        6.78000 0.00070
Cl        11.64000        7.09000        8.52000 0.30060
Cl        10.66000        9.40000        7.40000 0.30060
Cl         8.79000        7.68000        8.71000 0.30060
C          2.36000       10.82000        7.63000 -0.302700
H          2.69000        9.78000        7.49000 0.00070
Cl         0.99000       11.10000        8.72000 0.30060
Cl         3.73000       11.71000        8.37000 0.30060
Cl         2.06000       11.48000        6.00000 0.30060
C         14.21000       17.53000        4.99000 -0.302700
H         13.86000       17.68000        6.01000 0.00070
Cl        13.70000       18.99000        4.11000 0.30060
Cl        15.98000       17.10000        4.65000 0.30060
Cl        13.14000       16.30000        4.27000 0.30060
C         10.43000       17.19000        9.01000 -0.302700
H          9.64000       16.56000        8.59000 0.00070
Cl        11.11000       18.29000        7.77000 0.30060
Cl         9.72000       18.13000       10.30000 0.30060
Cl        11.73000       16.13000        9.56000 0.30060
C          6.49000       12.26000       19.52000 -0.302700
H          5.60000       12.90000       19.49000 0.00070
Cl         7.24000       12.02000       21.13000 0.30060
Cl         5.94000       10.66000       18.92000 0.30060
Cl         7.81000       12.86000       18.47000 0.30060
C         15.15000       12.96000       10.31000 -0.302700
H         14.88000       13.40000       11.27000 0.00070
Cl        13.54000       12.53000        9.69000 0.30060
Cl        15.78000       14.28000        9.25000 0.30060
Cl        16.35000       11.65000       10.34000 0.30060
C         14.39000       20.74000        8.15000 -0.302700
H         14.71000       21.52000        8.85000 0.00070
Cl        12.90000       21.20000        7.33000 0.30060
Cl        15.62000       20.48000        6.90000 0.30060
Cl        14.24000       19.33000        9.26000 0.30060
C         14.66000        7.50000        4.77000 -0.302700
H         14.87000        8.40000        5.35000 0.00070
Cl        16.07000        6.78000        4.07000 0.30060
Cl        13.96000        6.45000        5.90000 0.30060
Cl        13.52000        8.02000        3.54000 0.30060
C         14.55000       12.06000        5.41000 -0.302700
H         14.57000       13.00000        5.96000 0.00070
Cl        12.93000       11.31000        5.74000 0.30060
Cl        14.53000       12.41000        3.67000 0.30060
Cl        15.96000       11.01000        5.84000 0.30060
C         20.06000        9.04000        9.03000 -0.302700
H         20.03000        9.77000        9.85000 0.00070
Cl        21.58000        9.27000        8.17000 0.30060
Cl        19.98000        7.30000        9.59000 0.30060
Cl        18.69000        9.31000        8.00000 0.30060
C          4.37000        9.72000       13.53000 -0.302700
H          5.45000        9.63000       13.71000 0.00070
Cl         3.76000        8.05000       13.60000 0.30060
Cl         3.65000       10.79000       14.78000 0.30060
Cl         4.14000       10.25000       11.85000 0.30060
C         18.59000       13.45000        7.37000 -0.302700
H         17.82000       12.81000        7.81000 0.00070
Cl        20.02000       12.38000        7.24000 0.30060
Cl        18.12000       14.09000        5.75000 0.30060
Cl        19.10000       14.66000        8.60000 0.30060
C         18.98000       18.18000       11.27000 -0.302700
H         18.92000       19.26000       11.13000 0.00070
Cl        20.68000       17.75000       10.79000 0.30060
Cl        18.44000       17.92000       13.02000 0.30060
Cl        17.76000       17.50000       10.13000 0.30060
C         18.49000        6.74000       13.47000 -0.302700
H         19.07000        7.52000       13.97000 0.00070
Cl        19.59000        5.44000       12.77000 0.30060
Cl        17.30000        6.18000       14.70000 0.30060
Cl        17.49000        7.50000       12.24000 0.30060
C          6.65000       14.28000        8.75000 -0.302700
H          5.65000       14.72000        8.71000 0.00070
Cl         7.30000       13.97000        7.15000 0.30060
Cl         7.64000       15.41000        9.72000 0.30060
Cl         6.30000       12.91000        9.90000 0.30060
C          4.86000        8.93000        2.17000 -0.302700
H          4.17000        9.75000        2.38000 0.00070
Cl         4.04000        7.52000        2.88000 0.30060
Cl         5.01000        8.80000        0.39000 0.30060
Cl         6.45000        9.07000        2.95000 0.30060
C         12.43000       16.72000       18.64000 -0.302700
H         12.37000       17.12000       19.65000 0.00070
Cl        11.26000       15.35000       18.47000 0.30060
Cl        11.99000       18.09000       17.51000 0.30060
Cl        14.10000       16.08000       18.29000 0.30060
C          2.02000       16.10000       14.45000 -0.302700
H          1.50000       15.19000       14.75000 0.00070
Cl         2.25000       17.16000       15.88000 0.30060
Cl         3.59000       15.51000       13.86000 0.30060
Cl         1.03000       16.92000       13.14000 0.30060
C         15.26000        3.26000       12.86000 -0.302700
H         14.76000        2.43000       12.35000 0.00070
Cl        14.77000        3.18000       14.63000 0.30060
Cl        17.05000        3.15000       12.91000 0.30060
Cl        14.77000        4.73000       12.06000 0.30060
C          8.16000       13.50000       14.07000 -0.302700
H          8.92000       12.91000       13.55000 0.00070
Cl         8.81000       14.08000       15.59000 0.30060
Cl         7.68000       14.79000       13.06000 0.30060
Cl         6.67000       12.61000       14.48000 0.30060
C          3.62000       13.91000        3.75000 -0.302700
H          2.95000       13.06000        3.86000 0.00070
Cl         3.99000       14.32000        5.43000 0.30060
Cl         5.08000       13.15000        3.02000 0.30060
Cl         2.91000       15.21000        2.74000 0.30060
C          9.88000       11.40000        2.93000 -0.302700
H         10.47000       12.30000        2.79000 0.00070
Cl         8.39000       11.47000        1.96000 0.30060
Cl        10.85000       10.03000        2.42000 0.30060
Cl         9.53000       11.27000        4.70000 0.30060
C         10.78000        2.88000        8.12000 -0.302700
H         10.84000        2.03000        8.80000 0.00070
Cl        10.52000        2.06000        6.57000 0.30060
Cl         9.38000        3.83000        8.59000 0.30060
Cl        12.33000        3.80000        8.23000 0.30060
C         11.35000       11.63000       17.70000 -0.302700
H         10.71000       12.47000       17.42000 0.00070
Cl        13.01000       12.27000       17.57000 0.30060
Cl        10.82000       11.24000       19.31000 0.30060
Cl        10.91000       10.37000       16.46000 0.30060
C          5.43000        7.60000        7.66000 -0.302700
H          6.13000        7.96000        8.42000 0.00070
Cl         6.13000        6.08000        7.16000 0.30060
Cl         3.75000        7.34000        8.32000 0.30060
Cl         5.59000        8.90000        6.45000 0.30060
C         20.66000       10.13000       16.38000 -0.302700
H         21.58000       10.57000       15.99000 0.00070
Cl        19.42000       10.27000       15.07000 0.30060
Cl        20.96000        8.54000       17.01000 0.30060
Cl        20.20000       11.19000       17.73000 0.30060
C         11.93000       16.14000       13.21000 -0.302700
H         11.06000       16.59000       12.72000 0.00070
Cl        13.41000       16.84000       12.53000 0.30060
Cl        11.69000       16.15000       14.97000 0.30060
Cl        11.81000       14.47000       12.61000 0.30060
C         11.12000        3.77000       14.54000 -0.302700
H         12.07000        3.27000       14.72000 0.00070
Cl         9.90000        3.15000       15.62000 0.30060
Cl        11.43000        5.49000       15.06000 0.30060
Cl        10.69000        3.60000       12.80000 0.30060

