%Mem = 2GB
%nproc=16
# b3lyp/6-31g* td 

Butadiene tddft 

0 1
C         12.11000       11.88000       11.77000 
H         13.13000       12.05000       12.10000 
C         11.21000       11.34000       12.80000 
H         10.16000       11.32000       12.53000 
C         11.44000       10.94000       14.07000 
H         12.46000       10.82000       14.45000 
H         10.68000       10.57000       14.75000 
C         11.77000       12.30000       10.54000 
H         10.82000       12.27000       10.01000 
H         12.46000       12.74000        9.82000 
  
C         16.69000       19.44000       16.57000 -0.302700
H         16.61000       18.59000       15.90000 0.00070
Cl        17.75000       20.54000       15.73000 0.30060
Cl        15.08000       20.03000       16.79000 0.30060
Cl        17.25000       18.63000       18.01000 0.30060
C         11.01000        6.73000       12.31000 -0.302700
H         11.15000        6.17000       11.38000 0.00070
Cl        12.36000        7.81000       12.66000 0.30060
Cl         9.47000        7.57000       12.06000 0.30060
Cl        10.77000        5.51000       13.61000 0.30060
C          5.76000       11.15000       12.17000 -0.302700
H          5.34000       10.79000       11.23000 0.00070
Cl         5.46000       10.05000       13.49000 0.30060
Cl         7.57000       11.25000       11.85000 0.30060
Cl         5.12000       12.69000       12.79000 0.30060
C          3.66000       12.14000       18.14000 -0.302700
H          4.54000       12.72000       18.43000 0.00070
Cl         3.92000       11.51000       16.49000 0.30060
Cl         3.37000       10.85000       19.30000 0.30060
Cl         2.30000       13.28000       18.10000 0.30060
C          8.43000       14.16000       14.32000 -0.302700
H          7.40000       14.17000       13.93000 0.00070
Cl         9.51000       14.23000       12.88000 0.30060
Cl         8.64000       15.54000       15.36000 0.30060
Cl         8.43000       12.60000       15.25000 0.30060
C          5.76000       16.45000       10.65000 -0.302700
H          5.42000       15.64000       11.30000 0.00070
Cl         5.21000       16.28000        9.02000 0.30060
Cl         4.99000       17.89000       11.27000 0.30060
Cl         7.50000       16.51000       11.00000 0.30060
C         14.37000       15.89000        7.17000 -0.302700
H         13.58000       16.41000        6.62000 0.00070
Cl        13.89000       14.17000        7.57000 0.30060
Cl        15.80000       15.76000        6.08000 0.30060
Cl        15.01000       16.81000        8.64000 0.30060
C         20.44000        8.55000       12.27000 -0.302700
H         20.20000        8.50000       11.20000 0.00070
Cl        19.99000       10.21000       12.64000 0.30060
Cl        19.32000        7.45000       13.09000 0.30060
Cl        22.15000        8.12000       12.45000 0.30060
C          7.27000       13.86000       18.93000 -0.302700
H          8.30000       14.11000       18.66000 0.00070
Cl         7.22000       13.97000       20.66000 0.30060
Cl         6.14000       14.90000       18.03000 0.30060
Cl         7.15000       12.14000       18.53000 0.30060
C         13.64000        4.67000       17.77000 -0.302700
H         13.56000        4.38000       16.72000 0.00070
Cl        12.12000        5.56000       18.21000 0.30060
Cl        13.83000        3.26000       18.85000 0.30060
Cl        15.11000        5.79000       17.99000 0.30060
C         14.13000       14.84000       19.88000 -0.302700
H         13.23000       14.22000       19.91000 0.00070
Cl        15.42000       13.64000       19.82000 0.30060
Cl        13.97000       15.78000       18.32000 0.30060
Cl        14.25000       15.82000       21.35000 0.30060
C         10.36000        2.21000       16.29000 -0.302700
H         10.83000        3.13000       16.63000 0.00070
Cl        10.77000        2.06000       14.64000 0.30060
Cl        11.08000        0.90000       17.30000 0.30060
Cl         8.61000        2.56000       16.39000 0.30060
C         19.23000       14.25000       15.82000 -0.302700
H         19.34000       13.91000       14.79000 0.00070
Cl        18.20000       15.78000       15.95000 0.30060
Cl        18.76000       12.88000       16.91000 0.30060
Cl        20.83000       14.92000       16.15000 0.30060
C         13.47000        4.95000        5.46000 -0.302700
H         13.20000        3.99000        5.01000 0.00070
Cl        12.18000        5.42000        6.64000 0.30060
Cl        15.02000        4.65000        6.32000 0.30060
Cl        13.57000        6.15000        4.19000 0.30060
C         12.88000       11.31000        2.25000 -0.302700
H         13.43000       11.94000        2.96000 0.00070
Cl        13.80000        9.76000        2.03000 0.30060
Cl        11.30000       10.86000        2.85000 0.30060
Cl        12.81000       12.22000        0.70000 0.30060
C         11.97000        2.62000        9.88000 -0.302700
H         12.52000        1.81000       10.36000 0.00070
Cl        12.12000        2.26000        8.12000 0.30060
Cl        10.36000        2.34000       10.53000 0.30060
Cl        12.72000        4.16000       10.28000 0.30060
C         18.26000       14.19000        9.28000 -0.302700
H         17.23000       14.48000        9.50000 0.00070
Cl        18.74000       15.06000        7.78000 0.30060
Cl        19.20000       14.67000       10.78000 0.30060
Cl        18.28000       12.46000        9.01000 0.30060
C          5.63000        3.19000       13.77000 -0.302700
H          5.80000        2.36000       14.46000 0.00070
Cl         4.40000        4.24000       14.44000 0.30060
Cl         7.22000        3.92000       13.42000 0.30060
Cl         5.04000        2.32000       12.27000 0.30060
C         12.08000        9.96000       18.00000 -0.302700
H         11.94000        9.51000       18.99000 0.00070
Cl        10.91000       11.29000       17.88000 0.30060
Cl        13.79000       10.34000       17.83000 0.30060
Cl        11.74000        8.53000       17.01000 0.30060
C         17.08000       11.29000        4.86000 -0.302700
H         17.94000       11.86000        4.48000 0.00070
Cl        15.48000       12.17000        4.73000 0.30060
Cl        16.82000       10.03000        3.67000 0.30060
Cl        17.49000       10.54000        6.39000 0.30060
C         19.50000        7.89000       18.23000 -0.302700
H         20.43000        7.96000       17.66000 0.00070
Cl        19.65000        8.23000       19.96000 0.30060
Cl        18.47000        9.14000       17.40000 0.30060
Cl        18.67000        6.38000       17.86000 0.30060
C         15.88000        2.07000       15.46000 -0.302700
H         16.40000        1.54000       14.65000 0.00070
Cl        14.54000        3.01000       14.62000 0.30060
Cl        15.02000        0.93000       16.52000 0.30060
Cl        16.89000        3.20000       16.46000 0.30060
C         22.51000       12.07000       14.33000 -0.302700
H         23.04000       11.30000       13.76000 0.00070
Cl        23.84000       12.96000       15.06000 0.30060
Cl        21.47000       12.99000       13.25000 0.30060
Cl        21.64000       11.09000       15.50000 0.30060
C          9.12000       21.72000       11.54000 -0.302700
H          8.81000       20.69000       11.73000 0.00070
Cl         9.66000       22.29000       13.12000 0.30060
Cl        10.42000       21.83000       10.35000 0.30060
Cl         7.71000       22.66000       11.02000 0.30060
C          8.80000       16.09000        3.68000 -0.302700
H          9.11000       16.28000        4.71000 0.00070
Cl         8.92000       17.62000        2.77000 0.30060
Cl         9.87000       14.74000        3.04000 0.30060
Cl         7.10000       15.54000        3.84000 0.30060
C         11.07000       17.49000        9.12000 -0.302700
H         10.35000       17.63000        9.93000 0.00070
Cl        12.20000       16.23000        9.80000 0.30060
Cl        10.21000       17.12000        7.58000 0.30060
Cl        11.85000       19.09000        9.08000 0.30060
C          9.05000       19.62000       18.18000 -0.302700
H          9.64000       18.79000       17.79000 0.00070
Cl         9.04000       21.00000       17.08000 0.30060
Cl         7.42000       18.89000       18.25000 0.30060
Cl         9.40000       19.81000       19.93000 0.30060
C         12.52000       18.80000       13.62000 -0.302700
H         13.25000       18.00000       13.66000 0.00070
Cl        13.33000       20.35000       13.45000 0.30060
Cl        11.28000       18.51000       12.40000 0.30060
Cl        11.73000       18.78000       15.21000 0.30060
C         17.97000        6.33000        9.24000 -0.302700
H         17.39000        6.24000        8.31000 0.00070
Cl        18.25000        8.05000        9.63000 0.30060
Cl        17.00000        5.61000       10.52000 0.30060
Cl        19.56000        5.46000        9.05000 0.30060
C          9.57000        6.38000        4.62000 -0.302700
H         10.19000        5.49000        4.71000 0.00070
Cl         8.30000        6.05000        3.36000 0.30060
Cl         8.80000        6.66000        6.22000 0.30060
Cl        10.58000        7.76000        4.15000 0.30060
C          1.48000       12.01000        7.44000 -0.302700
H          1.63000       13.09000        7.47000 0.00070
Cl         1.89000       11.24000        5.83000 0.30060
Cl         2.45000       11.43000        8.77000 0.30060
Cl        -0.28000       11.86000        7.71000 0.30060
C          6.95000        9.32000        7.79000 -0.302700
H          7.09000        9.13000        6.72000 0.00070
Cl         8.47000        8.94000        8.66000 0.30060
Cl         6.44000       11.04000        7.79000 0.30060
Cl         5.53000        8.40000        8.42000 0.30060
C          7.25000        4.85000        9.29000 -0.302700
H          6.66000        5.42000       10.02000 0.00070
Cl         7.32000        3.17000        9.89000 0.30060
Cl         6.35000        5.00000        7.74000 0.30060
Cl         8.86000        5.56000        9.40000 0.30060
C          3.62000        6.50000       11.77000 -0.302700
H          3.09000        5.98000       12.58000 0.00070
Cl         3.82000        5.46000       10.40000 0.30060
Cl         2.53000        7.87000       11.46000 0.30060
Cl         5.17000        7.07000       12.29000 0.30060
C          7.99000        9.70000       21.87000 -0.302700
H          7.87000        9.24000       22.85000 0.00070
Cl         6.48000       10.58000       21.41000 0.30060
Cl         9.57000       10.52000       21.76000 0.30060
Cl         8.17000        8.27000       20.80000 0.30060
C         10.88000       15.89000       21.04000 -0.302700
H         11.68000       16.63000       21.14000 0.00070
Cl        11.14000       14.31000       21.84000 0.30060
Cl         9.41000       16.74000       21.73000 0.30060
Cl        10.57000       15.60000       19.37000 0.30060
C         14.17000       19.37000        4.25000 -0.302700
H         14.17000       20.17000        5.00000 0.00070
Cl        13.64000       20.09000        2.66000 0.30060
Cl        15.85000       18.67000        4.13000 0.30060
Cl        13.06000       18.17000        4.99000 0.30060
C         15.51000        7.98000       13.79000 -0.302700
H         14.49000        8.32000       14.01000 0.00070
Cl        16.00000        8.95000       12.41000 0.30060
Cl        16.36000        8.35000       15.33000 0.30060
Cl        15.38000        6.20000       13.57000 0.30060
C         14.48000       15.69000       12.49000 -0.302700
H         13.83000       15.94000       11.65000 0.00070
Cl        13.37000       15.11000       13.80000 0.30060
Cl        15.54000       14.34000       11.92000 0.30060
Cl        15.50000       17.09000       13.00000 0.30060
C         18.17000       19.46000        9.77000 -0.302700
H         17.18000       19.02000        9.92000 0.00070
Cl        18.11000       20.89000        8.71000 0.30060
Cl        18.74000       19.98000       11.42000 0.30060
Cl        19.28000       18.23000        9.15000 0.30060
C         14.46000        9.35000        8.40000 -0.302700
H         13.72000        9.01000        9.13000 0.00070
Cl        13.49000       10.32000        7.25000 0.30060
Cl        15.54000       10.58000        9.19000 0.30060
Cl        15.31000        7.95000        7.58000 0.30060
C          7.45000        7.62000       16.90000 -0.302700
H          7.16000        7.41000       17.93000 0.00070
Cl         8.27000        9.22000       16.88000 0.30060
Cl         8.65000        6.40000       16.50000 0.30060
Cl         6.01000        7.71000       15.79000 0.30060

%Mem = 2GB
%nproc=16
# b3lyp/6-31g* td 

Butadiene tddft 

0 1
C         12.11000       11.88000       11.77000 
H         13.13000       12.05000       12.10000 
C         11.21000       11.34000       12.80000 
H         10.16000       11.32000       12.53000 
C         11.44000       10.94000       14.07000 
H         12.46000       10.82000       14.45000 
H         10.68000       10.57000       14.75000 
C         11.77000       12.30000       10.54000 
H         10.82000       12.27000       10.01000 
H         12.46000       12.74000        9.82000 
  
C         16.69000       19.44000       16.57000 -0.302700
H         16.61000       18.59000       15.90000 0.00070
Cl        17.75000       20.54000       15.73000 0.30060
Cl        15.08000       20.03000       16.79000 0.30060
Cl        17.25000       18.63000       18.01000 0.30060
C         11.01000        6.73000       12.31000 -0.302700
H         11.15000        6.17000       11.38000 0.00070
Cl        12.36000        7.81000       12.66000 0.30060
Cl         9.47000        7.57000       12.06000 0.30060
Cl        10.77000        5.51000       13.61000 0.30060
C          5.76000       11.15000       12.17000 -0.302700
H          5.34000       10.79000       11.23000 0.00070
Cl         5.46000       10.05000       13.49000 0.30060
Cl         7.57000       11.25000       11.85000 0.30060
Cl         5.12000       12.69000       12.79000 0.30060
C          3.66000       12.14000       18.14000 -0.302700
H          4.54000       12.72000       18.43000 0.00070
Cl         3.92000       11.51000       16.49000 0.30060
Cl         3.37000       10.85000       19.30000 0.30060
Cl         2.30000       13.28000       18.10000 0.30060
C          8.43000       14.16000       14.32000 -0.302700
H          7.40000       14.17000       13.93000 0.00070
Cl         9.51000       14.23000       12.88000 0.30060
Cl         8.64000       15.54000       15.36000 0.30060
Cl         8.43000       12.60000       15.25000 0.30060
C          5.76000       16.45000       10.65000 -0.302700
H          5.42000       15.64000       11.30000 0.00070
Cl         5.21000       16.28000        9.02000 0.30060
Cl         4.99000       17.89000       11.27000 0.30060
Cl         7.50000       16.51000       11.00000 0.30060
C         14.37000       15.89000        7.17000 -0.302700
H         13.58000       16.41000        6.62000 0.00070
Cl        13.89000       14.17000        7.57000 0.30060
Cl        15.80000       15.76000        6.08000 0.30060
Cl        15.01000       16.81000        8.64000 0.30060
C         20.44000        8.55000       12.27000 -0.302700
H         20.20000        8.50000       11.20000 0.00070
Cl        19.99000       10.21000       12.64000 0.30060
Cl        19.32000        7.45000       13.09000 0.30060
Cl        22.15000        8.12000       12.45000 0.30060
C          7.27000       13.86000       18.93000 -0.302700
H          8.30000       14.11000       18.66000 0.00070
Cl         7.22000       13.97000       20.66000 0.30060
Cl         6.14000       14.90000       18.03000 0.30060
Cl         7.15000       12.14000       18.53000 0.30060
C         13.64000        4.67000       17.77000 -0.302700
H         13.56000        4.38000       16.72000 0.00070
Cl        12.12000        5.56000       18.21000 0.30060
Cl        13.83000        3.26000       18.85000 0.30060
Cl        15.11000        5.79000       17.99000 0.30060
C         14.13000       14.84000       19.88000 -0.302700
H         13.23000       14.22000       19.91000 0.00070
Cl        15.42000       13.64000       19.82000 0.30060
Cl        13.97000       15.78000       18.32000 0.30060
Cl        14.25000       15.82000       21.35000 0.30060
C         10.36000        2.21000       16.29000 -0.302700
H         10.83000        3.13000       16.63000 0.00070
Cl        10.77000        2.06000       14.64000 0.30060
Cl        11.08000        0.90000       17.30000 0.30060
Cl         8.61000        2.56000       16.39000 0.30060
C         19.23000       14.25000       15.82000 -0.302700
H         19.34000       13.91000       14.79000 0.00070
Cl        18.20000       15.78000       15.95000 0.30060
Cl        18.76000       12.88000       16.91000 0.30060
Cl        20.83000       14.92000       16.15000 0.30060
C         13.47000        4.95000        5.46000 -0.302700
H         13.20000        3.99000        5.01000 0.00070
Cl        12.18000        5.42000        6.64000 0.30060
Cl        15.02000        4.65000        6.32000 0.30060
Cl        13.57000        6.15000        4.19000 0.30060
C         12.88000       11.31000        2.25000 -0.302700
H         13.43000       11.94000        2.96000 0.00070
Cl        13.80000        9.76000        2.03000 0.30060
Cl        11.30000       10.86000        2.85000 0.30060
Cl        12.81000       12.22000        0.70000 0.30060
C         11.97000        2.62000        9.88000 -0.302700
H         12.52000        1.81000       10.36000 0.00070
Cl        12.12000        2.26000        8.12000 0.30060
Cl        10.36000        2.34000       10.53000 0.30060
Cl        12.72000        4.16000       10.28000 0.30060
C         18.26000       14.19000        9.28000 -0.302700
H         17.23000       14.48000        9.50000 0.00070
Cl        18.74000       15.06000        7.78000 0.30060
Cl        19.20000       14.67000       10.78000 0.30060
Cl        18.28000       12.46000        9.01000 0.30060
C          5.63000        3.19000       13.77000 -0.302700
H          5.80000        2.36000       14.46000 0.00070
Cl         4.40000        4.24000       14.44000 0.30060
Cl         7.22000        3.92000       13.42000 0.30060
Cl         5.04000        2.32000       12.27000 0.30060
C         12.08000        9.96000       18.00000 -0.302700
H         11.94000        9.51000       18.99000 0.00070
Cl        10.91000       11.29000       17.88000 0.30060
Cl        13.79000       10.34000       17.83000 0.30060
Cl        11.74000        8.53000       17.01000 0.30060
C         17.08000       11.29000        4.86000 -0.302700
H         17.94000       11.86000        4.48000 0.00070
Cl        15.48000       12.17000        4.73000 0.30060
Cl        16.82000       10.03000        3.67000 0.30060
Cl        17.49000       10.54000        6.39000 0.30060
C         19.50000        7.89000       18.23000 -0.302700
H         20.43000        7.96000       17.66000 0.00070
Cl        19.65000        8.23000       19.96000 0.30060
Cl        18.47000        9.14000       17.40000 0.30060
Cl        18.67000        6.38000       17.86000 0.30060
C         15.88000        2.07000       15.46000 -0.302700
H         16.40000        1.54000       14.65000 0.00070
Cl        14.54000        3.01000       14.62000 0.30060
Cl        15.02000        0.93000       16.52000 0.30060
Cl        16.89000        3.20000       16.46000 0.30060
C         22.51000       12.07000       14.33000 -0.302700
H         23.04000       11.30000       13.76000 0.00070
Cl        23.84000       12.96000       15.06000 0.30060
Cl        21.47000       12.99000       13.25000 0.30060
Cl        21.64000       11.09000       15.50000 0.30060
C          9.12000       21.72000       11.54000 -0.302700
H          8.81000       20.69000       11.73000 0.00070
Cl         9.66000       22.29000       13.12000 0.30060
Cl        10.42000       21.83000       10.35000 0.30060
Cl         7.71000       22.66000       11.02000 0.30060
C          8.80000       16.09000        3.68000 -0.302700
H          9.11000       16.28000        4.71000 0.00070
Cl         8.92000       17.62000        2.77000 0.30060
Cl         9.87000       14.74000        3.04000 0.30060
Cl         7.10000       15.54000        3.84000 0.30060
C         11.07000       17.49000        9.12000 -0.302700
H         10.35000       17.63000        9.93000 0.00070
Cl        12.20000       16.23000        9.80000 0.30060
Cl        10.21000       17.12000        7.58000 0.30060
Cl        11.85000       19.09000        9.08000 0.30060
C          9.05000       19.62000       18.18000 -0.302700
H          9.64000       18.79000       17.79000 0.00070
Cl         9.04000       21.00000       17.08000 0.30060
Cl         7.42000       18.89000       18.25000 0.30060
Cl         9.40000       19.81000       19.93000 0.30060
C         12.52000       18.80000       13.62000 -0.302700
H         13.25000       18.00000       13.66000 0.00070
Cl        13.33000       20.35000       13.45000 0.30060
Cl        11.28000       18.51000       12.40000 0.30060
Cl        11.73000       18.78000       15.21000 0.30060
C         17.97000        6.33000        9.24000 -0.302700
H         17.39000        6.24000        8.31000 0.00070
Cl        18.25000        8.05000        9.63000 0.30060
Cl        17.00000        5.61000       10.52000 0.30060
Cl        19.56000        5.46000        9.05000 0.30060
C          9.57000        6.38000        4.62000 -0.302700
H         10.19000        5.49000        4.71000 0.00070
Cl         8.30000        6.05000        3.36000 0.30060
Cl         8.80000        6.66000        6.22000 0.30060
Cl        10.58000        7.76000        4.15000 0.30060
C          1.48000       12.01000        7.44000 -0.302700
H          1.63000       13.09000        7.47000 0.00070
Cl         1.89000       11.24000        5.83000 0.30060
Cl         2.45000       11.43000        8.77000 0.30060
Cl        -0.28000       11.86000        7.71000 0.30060
C          6.95000        9.32000        7.79000 -0.302700
H          7.09000        9.13000        6.72000 0.00070
Cl         8.47000        8.94000        8.66000 0.30060
Cl         6.44000       11.04000        7.79000 0.30060
Cl         5.53000        8.40000        8.42000 0.30060
C          7.25000        4.85000        9.29000 -0.302700
H          6.66000        5.42000       10.02000 0.00070
Cl         7.32000        3.17000        9.89000 0.30060
Cl         6.35000        5.00000        7.74000 0.30060
Cl         8.86000        5.56000        9.40000 0.30060
C          3.62000        6.50000       11.77000 -0.302700
H          3.09000        5.98000       12.58000 0.00070
Cl         3.82000        5.46000       10.40000 0.30060
Cl         2.53000        7.87000       11.46000 0.30060
Cl         5.17000        7.07000       12.29000 0.30060
C          7.99000        9.70000       21.87000 -0.302700
H          7.87000        9.24000       22.85000 0.00070
Cl         6.48000       10.58000       21.41000 0.30060
Cl         9.57000       10.52000       21.76000 0.30060
Cl         8.17000        8.27000       20.80000 0.30060
C         10.88000       15.89000       21.04000 -0.302700
H         11.68000       16.63000       21.14000 0.00070
Cl        11.14000       14.31000       21.84000 0.30060
Cl         9.41000       16.74000       21.73000 0.30060
Cl        10.57000       15.60000       19.37000 0.30060
C         14.17000       19.37000        4.25000 -0.302700
H         14.17000       20.17000        5.00000 0.00070
Cl        13.64000       20.09000        2.66000 0.30060
Cl        15.85000       18.67000        4.13000 0.30060
Cl        13.06000       18.17000        4.99000 0.30060
C         15.51000        7.98000       13.79000 -0.302700
H         14.49000        8.32000       14.01000 0.00070
Cl        16.00000        8.95000       12.41000 0.30060
Cl        16.36000        8.35000       15.33000 0.30060
Cl        15.38000        6.20000       13.57000 0.30060
C         14.48000       15.69000       12.49000 -0.302700
H         13.83000       15.94000       11.65000 0.00070
Cl        13.37000       15.11000       13.80000 0.30060
Cl        15.54000       14.34000       11.92000 0.30060
Cl        15.50000       17.09000       13.00000 0.30060
C         18.17000       19.46000        9.77000 -0.302700
H         17.18000       19.02000        9.92000 0.00070
Cl        18.11000       20.89000        8.71000 0.30060
Cl        18.74000       19.98000       11.42000 0.30060
Cl        19.28000       18.23000        9.15000 0.30060
C         14.46000        9.35000        8.40000 -0.302700
H         13.72000        9.01000        9.13000 0.00070
Cl        13.49000       10.32000        7.25000 0.30060
Cl        15.54000       10.58000        9.19000 0.30060
Cl        15.31000        7.95000        7.58000 0.30060
C          7.45000        7.62000       16.90000 -0.302700
H          7.16000        7.41000       17.93000 0.00070
Cl         8.27000        9.22000       16.88000 0.30060
Cl         8.65000        6.40000       16.50000 0.30060
Cl         6.01000        7.71000       15.79000 0.30060

