%Mem = 2GB
%nproc=16
# b3lyp/6-31g* td 

Butadiene tddft 

0 1
C         13.77000       11.74000       11.82000 
H         13.96000       12.63000       11.22000 
C         12.73000       11.91000       12.74000 
H         12.51000       11.08000       13.40000 
C         12.04000       13.01000       12.92000 
H         12.29000       13.76000       12.18000 
H         11.18000       13.08000       13.57000 
C         14.49000       10.59000       11.62000 
H         14.45000        9.70000       12.25000 
H         15.30000       10.59000       10.90000 
  
C         16.02000       15.73000       10.61000 -0.302700
H         16.56000       15.23000       11.41000 0.00070
Cl        16.95000       17.27000       10.22000 0.30060
Cl        15.89000       14.64000        9.13000 0.30060
Cl        14.35000       16.00000       11.23000 0.30060
C         10.31000        7.33000       20.37000 -0.302700
H         10.44000        6.41000       19.79000 0.00070
Cl         9.73000        8.57000       19.19000 0.30060
Cl         8.94000        6.92000       21.45000 0.30060
Cl        12.03000        7.69000       20.95000 0.30060
C         15.18000        8.19000        9.11000 -0.302700
H         14.72000        8.68000        9.97000 0.00070
Cl        14.22000        8.71000        7.69000 0.30060
Cl        16.83000        8.73000        9.17000 0.30060
Cl        15.23000        6.46000        9.40000 0.30060
C          7.85000       10.95000       10.87000 -0.302700
H          7.44000       10.33000       11.68000 0.00070
Cl         6.42000       11.75000       10.08000 0.30060
Cl         8.87000       12.23000       11.57000 0.30060
Cl         8.73000        9.77000        9.79000 0.30060
C          6.64000        4.58000       16.28000 -0.302700
H          6.51000        3.51000       16.13000 0.00070
Cl         7.40000        5.16000       14.76000 0.30060
Cl         5.00000        5.27000       16.42000 0.30060
Cl         7.72000        4.94000       17.64000 0.30060
C         11.77000       15.00000        8.93000 -0.302700
H         12.80000       15.16000        8.58000 0.00070
Cl        11.18000       13.35000        9.39000 0.30060
Cl        11.44000       16.15000       10.24000 0.30060
Cl        11.01000       15.53000        7.37000 0.30060
C          8.73000       12.64000        5.75000 -0.302700
H          9.54000       13.29000        6.11000 0.00070
Cl         8.94000       11.18000        6.73000 0.30060
Cl         7.14000       13.37000        6.17000 0.30060
Cl         8.90000       12.31000        4.03000 0.30060
C          8.83000       10.81000       16.12000 -0.302700
H          8.61000       11.09000       17.15000 0.00070
Cl        10.58000       10.70000       15.88000 0.30060
Cl         8.06000        9.20000       15.85000 0.30060
Cl         8.19000       12.12000       15.04000 0.30060
C         15.50000        3.29000       14.48000 -0.302700
H         15.33000        3.83000       15.42000 0.00070
Cl        15.03000        1.54000       14.59000 0.30060
Cl        14.60000        4.24000       13.19000 0.30060
Cl        17.23000        3.40000       14.09000 0.30060
C         19.80000       16.51000       13.55000 -0.302700
H         19.56000       17.47000       13.99000 0.00070
Cl        21.02000       15.53000       14.48000 0.30060
Cl        18.23000       15.66000       13.47000 0.30060
Cl        20.35000       16.74000       11.88000 0.30060
C         20.90000       10.52000       15.56000 -0.302700
H         20.90000       11.19000       16.42000 0.00070
Cl        21.50000        8.88000       16.18000 0.30060
Cl        19.18000       10.58000       14.97000 0.30060
Cl        21.95000       11.27000       14.39000 0.30060
C         13.11000       20.02000        7.93000 -0.302700
H         13.52000       20.62000        8.75000 0.00070
Cl        12.61000       21.21000        6.73000 0.30060
Cl        14.26000       18.74000        7.39000 0.30060
Cl        11.64000       19.29000        8.67000 0.30060
C         14.71000        5.18000       20.22000 -0.302700
H         14.23000        6.14000       20.03000 0.00070
Cl        14.95000        4.31000       18.68000 0.30060
Cl        16.28000        5.58000       20.87000 0.30060
Cl        13.76000        4.19000       21.35000 0.30060
C          4.33000       10.16000        6.84000 -0.302700
H          4.93000       10.79000        7.50000 0.00070
Cl         5.52000        9.82000        5.50000 0.30060
Cl         3.85000        8.70000        7.77000 0.30060
Cl         2.84000       10.94000        6.21000 0.30060
C         14.32000        8.80000       15.82000 -0.302700
H         13.67000        9.65000       15.60000 0.00070
Cl        13.91000        8.10000       17.34000 0.30060
Cl        14.12000        7.52000       14.66000 0.30060
Cl        15.96000        9.50000       15.92000 0.30060
C         17.77000       20.63000       14.54000 -0.302700
H         17.21000       21.21000       13.81000 0.00070
Cl        17.53000       21.48000       16.05000 0.30060
Cl        17.05000       18.95000       14.61000 0.30060
Cl        19.50000       20.63000       14.03000 0.30060
C         18.56000        9.44000       19.70000 -0.302700
H         18.48000        9.73000       20.75000 0.00070
Cl        17.09000        8.65000       19.12000 0.30060
Cl        18.91000       10.88000       18.67000 0.30060
Cl        20.01000        8.39000       19.59000 0.30060
C         14.83000       14.70000       16.52000 -0.302700
H         14.35000       13.93000       17.13000 0.00070
Cl        13.94000       14.83000       14.95000 0.30060
Cl        14.83000       16.22000       17.41000 0.30060
Cl        16.32000       14.01000       16.05000 0.30060
C          2.98000       14.17000       13.46000 -0.302700
H          3.60000       14.75000       12.77000 0.00070
Cl         2.33000       12.70000       12.73000 0.30060
Cl         4.21000       13.77000       14.65000 0.30060
Cl         1.60000       15.18000       14.15000 0.30060
C          7.94000       18.42000        7.22000 -0.302700
H          8.75000       18.36000        7.95000 0.00070
Cl         6.56000       19.09000        8.15000 0.30060
Cl         8.37000       19.43000        5.78000 0.30060
Cl         7.70000       16.71000        6.69000 0.30060
C         14.27000       12.86000        4.71000 -0.302700
H         14.50000       13.93000        4.76000 0.00070
Cl        14.88000       12.00000        3.27000 0.30060
Cl        14.73000       12.18000        6.33000 0.30060
Cl        12.53000       12.61000        4.54000 0.30060
C          8.10000       20.56000       11.78000 -0.302700
H          8.04000       21.35000       11.03000 0.00070
Cl         9.54000       19.50000       11.58000 0.30060
Cl         8.07000       21.26000       13.40000 0.30060
Cl         6.48000       19.80000       11.49000 0.30060
C         10.30000       18.27000       16.91000 -0.302700
H         10.26000       17.20000       16.69000 0.00070
Cl        10.92000       18.46000       18.53000 0.30060
Cl        11.45000       19.10000       15.72000 0.30060
Cl         8.60000       18.89000       17.10000 0.30060
C         15.33000        7.11000        3.85000 -0.302700
H         15.32000        6.35000        3.06000 0.00070
Cl        13.75000        7.84000        4.12000 0.30060
Cl        16.00000        6.33000        5.28000 0.30060
Cl        16.37000        8.42000        3.24000 0.30060
C          5.09000        6.40000       10.58000 -0.302700
H          5.19000        7.32000       11.16000 0.00070
Cl         5.97000        6.39000        9.07000 0.30060
Cl         5.84000        5.18000       11.56000 0.30060
Cl         3.36000        5.97000       10.20000 0.30060
C         17.11000       20.67000        6.84000 -0.302700
H         16.30000       20.96000        7.51000 0.00070
Cl        17.88000       19.03000        7.34000 0.30060
Cl        16.48000       20.46000        5.16000 0.30060
Cl        18.31000       22.02000        6.92000 0.30060
C          4.47000       15.92000        9.29000 -0.302700
H          4.19000       16.96000        9.46000 0.00070
Cl         3.33000       14.73000       10.06000 0.30060
Cl         4.55000       15.89000        7.49000 0.30060
Cl         6.08000       15.71000       10.01000 0.30060
C          9.68000        5.07000        8.74000 -0.302700
H          9.10000        5.96000        8.99000 0.00070
Cl         9.35000        3.70000        9.83000 0.30060
Cl         8.93000        4.68000        7.15000 0.30060
Cl        11.46000        5.14000        8.62000 0.30060
C         11.57000       11.97000       20.12000 -0.302700
H         11.29000       11.33000       20.95000 0.00070
Cl        10.30000       12.19000       18.98000 0.30060
Cl        12.14000       13.60000       20.65000 0.30060
Cl        12.94000       11.22000       19.28000 0.30060
C         11.76000        4.67000       17.03000 -0.302700
H         12.75000        5.08000       17.24000 0.00070
Cl        11.99000        3.29000       15.96000 0.30060
Cl        11.05000        4.00000       18.48000 0.30060
Cl        10.68000        5.93000       16.38000 0.30060
C          7.02000       16.80000       13.89000 -0.302700
H          7.40000       17.82000       13.97000 0.00070
Cl         7.16000       16.22000       15.61000 0.30060
Cl         5.36000       16.78000       13.41000 0.30060
Cl         8.18000       16.06000       12.73000 0.30060
C         10.97000       17.95000        3.11000 -0.302700
H         11.36000       17.83000        2.10000 0.00070
Cl         9.27000       17.41000        3.27000 0.30060
Cl        12.00000       16.88000        4.04000 0.30060
Cl        11.29000       19.60000        3.67000 0.30060
C         17.52000       16.03000        4.99000 -0.302700
H         17.74000       16.26000        6.04000 0.00070
Cl        17.85000       14.25000        4.77000 0.30060
Cl        15.84000       16.38000        4.56000 0.30060
Cl        18.44000       17.00000        3.77000 0.30060
C         19.55000        7.59000       12.57000 -0.302700
H         19.95000        7.93000       13.53000 0.00070
Cl        18.15000        6.52000       12.72000 0.30060
Cl        19.26000        8.98000       11.51000 0.30060
Cl        20.81000        6.55000       11.78000 0.30060
C         20.23000       13.81000       10.31000 -0.302700
H         20.46000       14.66000       10.95000 0.00070
Cl        19.67000       14.54000        8.74000 0.30060
Cl        21.73000       12.94000        9.99000 0.30060
Cl        19.04000       12.84000       11.18000 0.30060
C         20.16000        9.64000        6.62000 -0.302700
H         19.40000       10.32000        7.00000 0.00070
Cl        19.22000        8.38000        5.86000 0.30060
Cl        21.26000       10.37000        5.47000 0.30060
Cl        21.04000        9.04000        8.10000 0.30060
C         10.44000        7.00000       12.85000 -0.302700
H         10.17000        6.88000       13.90000 0.00070
Cl        11.22000        8.55000       12.46000 0.30060
Cl        11.54000        5.62000       12.47000 0.30060
Cl         8.99000        6.70000       11.90000 0.30060

%Mem = 2GB
%nproc=16
# b3lyp/6-31g* td 

Butadiene tddft 

0 1
C         13.77000       11.74000       11.82000 
H         13.96000       12.63000       11.22000 
C         12.73000       11.91000       12.74000 
H         12.51000       11.08000       13.40000 
C         12.04000       13.01000       12.92000 
H         12.29000       13.76000       12.18000 
H         11.18000       13.08000       13.57000 
C         14.49000       10.59000       11.62000 
H         14.45000        9.70000       12.25000 
H         15.30000       10.59000       10.90000 
  
C         16.02000       15.73000       10.61000 -0.302700
H         16.56000       15.23000       11.41000 0.00070
Cl        16.95000       17.27000       10.22000 0.30060
Cl        15.89000       14.64000        9.13000 0.30060
Cl        14.35000       16.00000       11.23000 0.30060
C         10.31000        7.33000       20.37000 -0.302700
H         10.44000        6.41000       19.79000 0.00070
Cl         9.73000        8.57000       19.19000 0.30060
Cl         8.94000        6.92000       21.45000 0.30060
Cl        12.03000        7.69000       20.95000 0.30060
C         15.18000        8.19000        9.11000 -0.302700
H         14.72000        8.68000        9.97000 0.00070
Cl        14.22000        8.71000        7.69000 0.30060
Cl        16.83000        8.73000        9.17000 0.30060
Cl        15.23000        6.46000        9.40000 0.30060
C          7.85000       10.95000       10.87000 -0.302700
H          7.44000       10.33000       11.68000 0.00070
Cl         6.42000       11.75000       10.08000 0.30060
Cl         8.87000       12.23000       11.57000 0.30060
Cl         8.73000        9.77000        9.79000 0.30060
C          6.64000        4.58000       16.28000 -0.302700
H          6.51000        3.51000       16.13000 0.00070
Cl         7.40000        5.16000       14.76000 0.30060
Cl         5.00000        5.27000       16.42000 0.30060
Cl         7.72000        4.94000       17.64000 0.30060
C         11.77000       15.00000        8.93000 -0.302700
H         12.80000       15.16000        8.58000 0.00070
Cl        11.18000       13.35000        9.39000 0.30060
Cl        11.44000       16.15000       10.24000 0.30060
Cl        11.01000       15.53000        7.37000 0.30060
C          8.73000       12.64000        5.75000 -0.302700
H          9.54000       13.29000        6.11000 0.00070
Cl         8.94000       11.18000        6.73000 0.30060
Cl         7.14000       13.37000        6.17000 0.30060
Cl         8.90000       12.31000        4.03000 0.30060
C          8.83000       10.81000       16.12000 -0.302700
H          8.61000       11.09000       17.15000 0.00070
Cl        10.58000       10.70000       15.88000 0.30060
Cl         8.06000        9.20000       15.85000 0.30060
Cl         8.19000       12.12000       15.04000 0.30060
C         15.50000        3.29000       14.48000 -0.302700
H         15.33000        3.83000       15.42000 0.00070
Cl        15.03000        1.54000       14.59000 0.30060
Cl        14.60000        4.24000       13.19000 0.30060
Cl        17.23000        3.40000       14.09000 0.30060
C         19.80000       16.51000       13.55000 -0.302700
H         19.56000       17.47000       13.99000 0.00070
Cl        21.02000       15.53000       14.48000 0.30060
Cl        18.23000       15.66000       13.47000 0.30060
Cl        20.35000       16.74000       11.88000 0.30060
C         20.90000       10.52000       15.56000 -0.302700
H         20.90000       11.19000       16.42000 0.00070
Cl        21.50000        8.88000       16.18000 0.30060
Cl        19.18000       10.58000       14.97000 0.30060
Cl        21.95000       11.27000       14.39000 0.30060
C         13.11000       20.02000        7.93000 -0.302700
H         13.52000       20.62000        8.75000 0.00070
Cl        12.61000       21.21000        6.73000 0.30060
Cl        14.26000       18.74000        7.39000 0.30060
Cl        11.64000       19.29000        8.67000 0.30060
C         14.71000        5.18000       20.22000 -0.302700
H         14.23000        6.14000       20.03000 0.00070
Cl        14.95000        4.31000       18.68000 0.30060
Cl        16.28000        5.58000       20.87000 0.30060
Cl        13.76000        4.19000       21.35000 0.30060
C          4.33000       10.16000        6.84000 -0.302700
H          4.93000       10.79000        7.50000 0.00070
Cl         5.52000        9.82000        5.50000 0.30060
Cl         3.85000        8.70000        7.77000 0.30060
Cl         2.84000       10.94000        6.21000 0.30060
C         14.32000        8.80000       15.82000 -0.302700
H         13.67000        9.65000       15.60000 0.00070
Cl        13.91000        8.10000       17.34000 0.30060
Cl        14.12000        7.52000       14.66000 0.30060
Cl        15.96000        9.50000       15.92000 0.30060
C         17.77000       20.63000       14.54000 -0.302700
H         17.21000       21.21000       13.81000 0.00070
Cl        17.53000       21.48000       16.05000 0.30060
Cl        17.05000       18.95000       14.61000 0.30060
Cl        19.50000       20.63000       14.03000 0.30060
C         18.56000        9.44000       19.70000 -0.302700
H         18.48000        9.73000       20.75000 0.00070
Cl        17.09000        8.65000       19.12000 0.30060
Cl        18.91000       10.88000       18.67000 0.30060
Cl        20.01000        8.39000       19.59000 0.30060
C         14.83000       14.70000       16.52000 -0.302700
H         14.35000       13.93000       17.13000 0.00070
Cl        13.94000       14.83000       14.95000 0.30060
Cl        14.83000       16.22000       17.41000 0.30060
Cl        16.32000       14.01000       16.05000 0.30060
C          2.98000       14.17000       13.46000 -0.302700
H          3.60000       14.75000       12.77000 0.00070
Cl         2.33000       12.70000       12.73000 0.30060
Cl         4.21000       13.77000       14.65000 0.30060
Cl         1.60000       15.18000       14.15000 0.30060
C          7.94000       18.42000        7.22000 -0.302700
H          8.75000       18.36000        7.95000 0.00070
Cl         6.56000       19.09000        8.15000 0.30060
Cl         8.37000       19.43000        5.78000 0.30060
Cl         7.70000       16.71000        6.69000 0.30060
C         14.27000       12.86000        4.71000 -0.302700
H         14.50000       13.93000        4.76000 0.00070
Cl        14.88000       12.00000        3.27000 0.30060
Cl        14.73000       12.18000        6.33000 0.30060
Cl        12.53000       12.61000        4.54000 0.30060
C          8.10000       20.56000       11.78000 -0.302700
H          8.04000       21.35000       11.03000 0.00070
Cl         9.54000       19.50000       11.58000 0.30060
Cl         8.07000       21.26000       13.40000 0.30060
Cl         6.48000       19.80000       11.49000 0.30060
C         10.30000       18.27000       16.91000 -0.302700
H         10.26000       17.20000       16.69000 0.00070
Cl        10.92000       18.46000       18.53000 0.30060
Cl        11.45000       19.10000       15.72000 0.30060
Cl         8.60000       18.89000       17.10000 0.30060
C         15.33000        7.11000        3.85000 -0.302700
H         15.32000        6.35000        3.06000 0.00070
Cl        13.75000        7.84000        4.12000 0.30060
Cl        16.00000        6.33000        5.28000 0.30060
Cl        16.37000        8.42000        3.24000 0.30060
C          5.09000        6.40000       10.58000 -0.302700
H          5.19000        7.32000       11.16000 0.00070
Cl         5.97000        6.39000        9.07000 0.30060
Cl         5.84000        5.18000       11.56000 0.30060
Cl         3.36000        5.97000       10.20000 0.30060
C         17.11000       20.67000        6.84000 -0.302700
H         16.30000       20.96000        7.51000 0.00070
Cl        17.88000       19.03000        7.34000 0.30060
Cl        16.48000       20.46000        5.16000 0.30060
Cl        18.31000       22.02000        6.92000 0.30060
C          4.47000       15.92000        9.29000 -0.302700
H          4.19000       16.96000        9.46000 0.00070
Cl         3.33000       14.73000       10.06000 0.30060
Cl         4.55000       15.89000        7.49000 0.30060
Cl         6.08000       15.71000       10.01000 0.30060
C          9.68000        5.07000        8.74000 -0.302700
H          9.10000        5.96000        8.99000 0.00070
Cl         9.35000        3.70000        9.83000 0.30060
Cl         8.93000        4.68000        7.15000 0.30060
Cl        11.46000        5.14000        8.62000 0.30060
C         11.57000       11.97000       20.12000 -0.302700
H         11.29000       11.33000       20.95000 0.00070
Cl        10.30000       12.19000       18.98000 0.30060
Cl        12.14000       13.60000       20.65000 0.30060
Cl        12.94000       11.22000       19.28000 0.30060
C         11.76000        4.67000       17.03000 -0.302700
H         12.75000        5.08000       17.24000 0.00070
Cl        11.99000        3.29000       15.96000 0.30060
Cl        11.05000        4.00000       18.48000 0.30060
Cl        10.68000        5.93000       16.38000 0.30060
C          7.02000       16.80000       13.89000 -0.302700
H          7.40000       17.82000       13.97000 0.00070
Cl         7.16000       16.22000       15.61000 0.30060
Cl         5.36000       16.78000       13.41000 0.30060
Cl         8.18000       16.06000       12.73000 0.30060
C         10.97000       17.95000        3.11000 -0.302700
H         11.36000       17.83000        2.10000 0.00070
Cl         9.27000       17.41000        3.27000 0.30060
Cl        12.00000       16.88000        4.04000 0.30060
Cl        11.29000       19.60000        3.67000 0.30060
C         17.52000       16.03000        4.99000 -0.302700
H         17.74000       16.26000        6.04000 0.00070
Cl        17.85000       14.25000        4.77000 0.30060
Cl        15.84000       16.38000        4.56000 0.30060
Cl        18.44000       17.00000        3.77000 0.30060
C         19.55000        7.59000       12.57000 -0.302700
H         19.95000        7.93000       13.53000 0.00070
Cl        18.15000        6.52000       12.72000 0.30060
Cl        19.26000        8.98000       11.51000 0.30060
Cl        20.81000        6.55000       11.78000 0.30060
C         20.23000       13.81000       10.31000 -0.302700
H         20.46000       14.66000       10.95000 0.00070
Cl        19.67000       14.54000        8.74000 0.30060
Cl        21.73000       12.94000        9.99000 0.30060
Cl        19.04000       12.84000       11.18000 0.30060
C         20.16000        9.64000        6.62000 -0.302700
H         19.40000       10.32000        7.00000 0.00070
Cl        19.22000        8.38000        5.86000 0.30060
Cl        21.26000       10.37000        5.47000 0.30060
Cl        21.04000        9.04000        8.10000 0.30060
C         10.44000        7.00000       12.85000 -0.302700
H         10.17000        6.88000       13.90000 0.00070
Cl        11.22000        8.55000       12.46000 0.30060
Cl        11.54000        5.62000       12.47000 0.30060
Cl         8.99000        6.70000       11.90000 0.30060

