%Mem = 2GB
%nproc=16
# b3lyp/6-31g* td 

Butadiene tddft 

0 1
C         11.46000       10.22000       12.07000 
H         10.60000        9.67000       12.44000 
C         11.59000       11.67000       12.22000 
H         12.38000       12.11000       11.61000 
C         10.89000       12.39000       13.07000 
H         10.08000       11.97000       13.67000 
H         11.02000       13.47000       13.08000 
C         12.35000        9.38000       11.42000 
H         13.37000        9.58000       11.09000 
H         12.03000        8.35000       11.29000 
  
C          3.10000       15.04000       11.50000 -0.302700
H          3.29000       13.97000       11.39000 0.00070
Cl         3.84000       15.56000       13.01000 0.30060
Cl         3.93000       15.82000       10.05000 0.30060
Cl         1.35000       15.32000       11.30000 0.30060
C         21.77000       11.87000       11.25000 -0.302700
H         21.82000       10.79000       11.38000 0.00070
Cl        22.18000       12.56000       12.82000 0.30060
Cl        23.08000       12.21000       10.00000 0.30060
Cl        20.07000       12.45000       10.77000 0.30060
C         11.98000        6.40000       19.28000 -0.302700
H         11.99000        6.21000       20.36000 0.00070
Cl        11.15000        5.05000       18.47000 0.30060
Cl        10.94000        7.84000       19.18000 0.30060
Cl        13.63000        6.63000       18.71000 0.30060
C          4.53000        9.59000        5.62000 -0.302700
H          3.94000        8.68000        5.77000 0.00070
Cl         5.61000        9.79000        7.02000 0.30060
Cl         5.51000        9.08000        4.21000 0.30060
Cl         3.51000       11.04000        5.14000 0.30060
C          9.99000        5.87000       12.55000 -0.302700
H         10.56000        6.54000       13.20000 0.00070
Cl        10.12000        4.12000       13.06000 0.30060
Cl         8.29000        6.49000       12.52000 0.30060
Cl        10.82000        6.03000       10.97000 0.30060
C          4.11000        6.16000       13.41000 -0.302700
H          4.77000        7.03000       13.39000 0.00070
Cl         2.76000        6.55000       14.47000 0.30060
Cl         3.55000        6.04000       11.74000 0.30060
Cl         4.98000        4.69000       13.91000 0.30060
C         14.99000        3.74000       13.00000 -0.302700
H         15.62000        4.61000       13.15000 0.00070
Cl        16.11000        2.79000       12.00000 0.30060
Cl        14.46000        3.01000       14.53000 0.30060
Cl        13.72000        4.31000       11.91000 0.30060
C          9.79000       12.09000        2.47000 -0.302700
H         10.67000       12.34000        3.07000 0.00070
Cl         8.71000       10.92000        3.27000 0.30060
Cl         8.83000       13.52000        2.09000 0.30060
Cl        10.51000       11.51000        0.99000 0.30060
C         19.27000        4.66000        7.98000 -0.302700
H         19.14000        3.64000        7.61000 0.00070
Cl        18.28000        4.98000        9.42000 0.30060
Cl        21.03000        4.87000        8.49000 0.30060
Cl        18.87000        5.78000        6.67000 0.30060
C         19.79000       16.78000       13.68000 -0.302700
H         19.10000       17.36000       13.07000 0.00070
Cl        19.56000       15.07000       13.22000 0.30060
Cl        21.44000       17.37000       13.32000 0.30060
Cl        19.28000       16.94000       15.36000 0.30060
C          8.49000        8.63000       16.37000 -0.302700
H          8.23000        8.47000       17.42000 0.00070
Cl         7.11000        8.23000       15.32000 0.30060
Cl         8.71000       10.44000       16.43000 0.30060
Cl        10.01000        7.81000       15.90000 0.30060
C         18.24000       14.83000       20.16000 -0.302700
H         18.86000       13.94000       20.32000 0.00070
Cl        18.38000       15.72000       21.69000 0.30060
Cl        18.94000       15.72000       18.77000 0.30060
Cl        16.55000       14.43000       19.73000 0.30060
C          9.32000       12.32000        6.45000 -0.302700
H          8.79000       11.87000        5.62000 0.00070
Cl         9.84000       13.98000        6.03000 0.30060
Cl         8.32000       12.16000        7.94000 0.30060
Cl        10.71000       11.27000        6.83000 0.30060
C         19.88000        8.17000        9.26000 -0.302700
H         19.48000        7.16000        9.18000 0.00070
Cl        21.14000        8.42000        8.00000 0.30060
Cl        18.49000        9.24000        8.92000 0.30060
Cl        20.53000        8.31000       10.91000 0.30060
C         13.94000       19.48000        6.34000 -0.302700
H         13.05000       18.97000        6.71000 0.00070
Cl        14.07000       19.25000        4.58000 0.30060
Cl        13.79000       21.19000        6.88000 0.30060
Cl        15.40000       18.67000        7.10000 0.30060
C          7.60000       16.13000        9.71000 -0.302700
H          6.70000       15.82000        9.18000 0.00070
Cl         7.21000       17.02000       11.11000 0.30060
Cl         8.68000       14.71000       10.09000 0.30060
Cl         8.30000       17.34000        8.61000 0.30060
C          2.13000        9.57000       11.26000 -0.302700
H          2.82000        8.80000       11.62000 0.00070
Cl         2.40000        9.99000        9.54000 0.30060
Cl         0.48000        9.03000       11.42000 0.30060
Cl         2.50000       10.95000       12.33000 0.30060
C         12.45000       15.09000        9.78000 -0.302700
H         11.71000       15.24000       10.57000 0.00070
Cl        14.11000       15.20000       10.40000 0.30060
Cl        12.06000       13.49000        8.95000 0.30060
Cl        12.29000       16.42000        8.59000 0.30060
C         11.41000       19.99000       11.10000 -0.302700
H         12.19000       20.28000       11.81000 0.00070
Cl        10.10000       21.07000       11.78000 0.30060
Cl        11.97000       20.45000        9.46000 0.30060
Cl        11.18000       18.26000       11.34000 0.30060
C          4.19000        9.40000       19.47000 -0.302700
H          4.41000       10.47000       19.52000 0.00070
Cl         4.56000        8.79000       17.82000 0.30060
Cl         5.13000        8.51000       20.68000 0.30060
Cl         2.45000        9.29000       19.71000 0.30060
C         13.45000       14.84000        4.92000 -0.302700
H         13.29000       15.09000        5.98000 0.00070
Cl        12.45000       15.94000        3.94000 0.30060
Cl        15.24000       15.03000        4.62000 0.30060
Cl        12.93000       13.13000        4.72000 0.30060
C          6.25000        3.38000       10.17000 -0.302700
H          6.81000        2.95000        9.33000 0.00070
Cl         4.53000        2.90000       10.03000 0.30060
Cl         6.95000        2.78000       11.71000 0.30060
Cl         6.47000        5.12000        9.94000 0.30060
C         15.62000       11.63000        7.10000 -0.302700
H         15.01000       12.30000        6.49000 0.00070
Cl        16.85000       10.83000        6.12000 0.30060
Cl        16.38000       12.39000        8.53000 0.30060
Cl        14.43000       10.51000        7.73000 0.30060
C          5.05000       12.07000       16.11000 -0.302700
H          5.56000       11.51000       16.90000 0.00070
Cl         6.04000       11.76000       14.63000 0.30060
Cl         3.35000       11.56000       15.93000 0.30060
Cl         5.16000       13.81000       16.57000 0.30060
C         17.20000       19.41000       11.82000 -0.302700
H         16.33000       20.01000       11.54000 0.00070
Cl        18.35000       19.61000       10.42000 0.30060
Cl        17.92000       19.70000       13.40000 0.30060
Cl        16.86000       17.67000       11.87000 0.30060
C          6.99000       21.15000       13.28000 -0.302700
H          7.34000       21.35000       12.26000 0.00070
Cl         5.17000       21.22000       13.43000 0.30060
Cl         7.59000       19.65000       14.04000 0.30060
Cl         7.60000       22.47000       14.24000 0.30060
C         14.15000       21.56000       13.64000 -0.302700
H         15.12000       21.37000       14.11000 0.00070
Cl        13.13000       20.09000       14.03000 0.30060
Cl        13.41000       22.96000       14.49000 0.30060
Cl        14.29000       21.85000       11.88000 0.30060
C         19.82000        4.06000       13.97000 -0.302700
H         20.60000        3.58000       14.58000 0.00070
Cl        19.48000        2.78000       12.83000 0.30060
Cl        18.55000        4.62000       14.98000 0.30060
Cl        20.41000        5.47000       13.07000 0.30060
C          6.61000       10.84000       10.63000 -0.302700
H          6.66000       10.77000        9.54000 0.00070
Cl         5.46000       12.16000       10.96000 0.30060
Cl         6.02000        9.26000       11.24000 0.30060
Cl         8.26000       11.14000       11.24000 0.30060
C         12.39000       18.34000       20.20000 -0.302700
H         13.15000       18.87000       20.78000 0.00070
Cl        11.39000       17.53000       21.48000 0.30060
Cl        11.51000       19.48000       19.20000 0.30060
Cl        13.11000       17.01000       19.33000 0.30060
C         14.91000        6.61000        7.12000 -0.302700
H         13.85000        6.88000        7.07000 0.00070
Cl        15.45000        7.38000        8.63000 0.30060
Cl        14.94000        4.82000        7.15000 0.30060
Cl        15.71000        7.32000        5.74000 0.30060
C         11.53000        1.26000        9.37000 -0.302700
H         12.42000        0.93000        8.83000 0.00070
Cl        11.50000        0.60000       11.00000 0.30060
Cl        11.53000        3.09000        9.31000 0.30060
Cl        10.06000        0.75000        8.55000 0.30060
C          9.70000       16.04000       15.38000 -0.302700
H          9.35000       15.74000       14.39000 0.00070
Cl         8.36000       16.63000       16.42000 0.30060
Cl        10.32000       14.48000       16.01000 0.30060
Cl        10.93000       17.21000       14.96000 0.30060
C          6.03000       14.40000        4.33000 -0.302700
H          6.61000       14.44000        3.40000 0.00070
Cl         6.41000       12.78000        5.05000 0.30060
Cl         6.45000       15.81000        5.37000 0.30060
Cl         4.31000       14.38000        3.84000 0.30060
C          9.90000        6.92000        5.69000 -0.302700
H          9.36000        7.04000        4.75000 0.00070
Cl        10.55000        5.24000        5.71000 0.30060
Cl        11.23000        8.05000        5.54000 0.30060
Cl         8.88000        7.33000        7.09000 0.30060
C         13.32000       11.87000       20.69000 -0.302700
H         12.70000       10.99000       20.47000 0.00070
Cl        13.22000       12.71000       19.08000 0.30060
Cl        12.53000       12.78000       22.06000 0.30060
Cl        14.91000       11.32000       21.23000 0.30060
C          9.03000       14.91000       20.77000 -0.302700
H         10.04000       14.77000       20.38000 0.00070
Cl         8.06000       13.54000       20.21000 0.30060
Cl         9.21000       14.80000       22.56000 0.30060
Cl         8.15000       16.35000       20.23000 0.30060
C         19.22000       11.81000       16.98000 -0.302700
H         19.53000       10.77000       16.85000 0.00070
Cl        17.60000       11.59000       17.71000 0.30060
Cl        20.38000       12.79000       17.90000 0.30060
Cl        19.06000       12.43000       15.32000 0.30060
C         13.78000       14.83000       15.36000 -0.302700
H         13.12000       15.18000       16.15000 0.00070
Cl        13.11000       15.24000       13.79000 0.30060
Cl        15.37000       15.57000       15.60000 0.30060
Cl        13.99000       13.10000       15.44000 0.30060
C          7.03000        4.44000       17.79000 -0.302700
H          6.98000        3.90000       18.74000 0.00070
Cl         8.02000        5.85000       18.24000 0.30060
Cl         7.89000        3.36000       16.61000 0.30060
Cl         5.35000        4.85000       17.25000 0.30060

%Mem = 2GB
%nproc=16
# b3lyp/6-31g* td 

Butadiene tddft 

0 1
C         11.46000       10.22000       12.07000 
H         10.60000        9.67000       12.44000 
C         11.59000       11.67000       12.22000 
H         12.38000       12.11000       11.61000 
C         10.89000       12.39000       13.07000 
H         10.08000       11.97000       13.67000 
H         11.02000       13.47000       13.08000 
C         12.35000        9.38000       11.42000 
H         13.37000        9.58000       11.09000 
H         12.03000        8.35000       11.29000 
  
C          3.10000       15.04000       11.50000 -0.302700
H          3.29000       13.97000       11.39000 0.00070
Cl         3.84000       15.56000       13.01000 0.30060
Cl         3.93000       15.82000       10.05000 0.30060
Cl         1.35000       15.32000       11.30000 0.30060
C         21.77000       11.87000       11.25000 -0.302700
H         21.82000       10.79000       11.38000 0.00070
Cl        22.18000       12.56000       12.82000 0.30060
Cl        23.08000       12.21000       10.00000 0.30060
Cl        20.07000       12.45000       10.77000 0.30060
C         11.98000        6.40000       19.28000 -0.302700
H         11.99000        6.21000       20.36000 0.00070
Cl        11.15000        5.05000       18.47000 0.30060
Cl        10.94000        7.84000       19.18000 0.30060
Cl        13.63000        6.63000       18.71000 0.30060
C          4.53000        9.59000        5.62000 -0.302700
H          3.94000        8.68000        5.77000 0.00070
Cl         5.61000        9.79000        7.02000 0.30060
Cl         5.51000        9.08000        4.21000 0.30060
Cl         3.51000       11.04000        5.14000 0.30060
C          9.99000        5.87000       12.55000 -0.302700
H         10.56000        6.54000       13.20000 0.00070
Cl        10.12000        4.12000       13.06000 0.30060
Cl         8.29000        6.49000       12.52000 0.30060
Cl        10.82000        6.03000       10.97000 0.30060
C          4.11000        6.16000       13.41000 -0.302700
H          4.77000        7.03000       13.39000 0.00070
Cl         2.76000        6.55000       14.47000 0.30060
Cl         3.55000        6.04000       11.74000 0.30060
Cl         4.98000        4.69000       13.91000 0.30060
C         14.99000        3.74000       13.00000 -0.302700
H         15.62000        4.61000       13.15000 0.00070
Cl        16.11000        2.79000       12.00000 0.30060
Cl        14.46000        3.01000       14.53000 0.30060
Cl        13.72000        4.31000       11.91000 0.30060
C          9.79000       12.09000        2.47000 -0.302700
H         10.67000       12.34000        3.07000 0.00070
Cl         8.71000       10.92000        3.27000 0.30060
Cl         8.83000       13.52000        2.09000 0.30060
Cl        10.51000       11.51000        0.99000 0.30060
C         19.27000        4.66000        7.98000 -0.302700
H         19.14000        3.64000        7.61000 0.00070
Cl        18.28000        4.98000        9.42000 0.30060
Cl        21.03000        4.87000        8.49000 0.30060
Cl        18.87000        5.78000        6.67000 0.30060
C         19.79000       16.78000       13.68000 -0.302700
H         19.10000       17.36000       13.07000 0.00070
Cl        19.56000       15.07000       13.22000 0.30060
Cl        21.44000       17.37000       13.32000 0.30060
Cl        19.28000       16.94000       15.36000 0.30060
C          8.49000        8.63000       16.37000 -0.302700
H          8.23000        8.47000       17.42000 0.00070
Cl         7.11000        8.23000       15.32000 0.30060
Cl         8.71000       10.44000       16.43000 0.30060
Cl        10.01000        7.81000       15.90000 0.30060
C         18.24000       14.83000       20.16000 -0.302700
H         18.86000       13.94000       20.32000 0.00070
Cl        18.38000       15.72000       21.69000 0.30060
Cl        18.94000       15.72000       18.77000 0.30060
Cl        16.55000       14.43000       19.73000 0.30060
C          9.32000       12.32000        6.45000 -0.302700
H          8.79000       11.87000        5.62000 0.00070
Cl         9.84000       13.98000        6.03000 0.30060
Cl         8.32000       12.16000        7.94000 0.30060
Cl        10.71000       11.27000        6.83000 0.30060
C         19.88000        8.17000        9.26000 -0.302700
H         19.48000        7.16000        9.18000 0.00070
Cl        21.14000        8.42000        8.00000 0.30060
Cl        18.49000        9.24000        8.92000 0.30060
Cl        20.53000        8.31000       10.91000 0.30060
C         13.94000       19.48000        6.34000 -0.302700
H         13.05000       18.97000        6.71000 0.00070
Cl        14.07000       19.25000        4.58000 0.30060
Cl        13.79000       21.19000        6.88000 0.30060
Cl        15.40000       18.67000        7.10000 0.30060
C          7.60000       16.13000        9.71000 -0.302700
H          6.70000       15.82000        9.18000 0.00070
Cl         7.21000       17.02000       11.11000 0.30060
Cl         8.68000       14.71000       10.09000 0.30060
Cl         8.30000       17.34000        8.61000 0.30060
C          2.13000        9.57000       11.26000 -0.302700
H          2.82000        8.80000       11.62000 0.00070
Cl         2.40000        9.99000        9.54000 0.30060
Cl         0.48000        9.03000       11.42000 0.30060
Cl         2.50000       10.95000       12.33000 0.30060
C         12.45000       15.09000        9.78000 -0.302700
H         11.71000       15.24000       10.57000 0.00070
Cl        14.11000       15.20000       10.40000 0.30060
Cl        12.06000       13.49000        8.95000 0.30060
Cl        12.29000       16.42000        8.59000 0.30060
C         11.41000       19.99000       11.10000 -0.302700
H         12.19000       20.28000       11.81000 0.00070
Cl        10.10000       21.07000       11.78000 0.30060
Cl        11.97000       20.45000        9.46000 0.30060
Cl        11.18000       18.26000       11.34000 0.30060
C          4.19000        9.40000       19.47000 -0.302700
H          4.41000       10.47000       19.52000 0.00070
Cl         4.56000        8.79000       17.82000 0.30060
Cl         5.13000        8.51000       20.68000 0.30060
Cl         2.45000        9.29000       19.71000 0.30060
C         13.45000       14.84000        4.92000 -0.302700
H         13.29000       15.09000        5.98000 0.00070
Cl        12.45000       15.94000        3.94000 0.30060
Cl        15.24000       15.03000        4.62000 0.30060
Cl        12.93000       13.13000        4.72000 0.30060
C          6.25000        3.38000       10.17000 -0.302700
H          6.81000        2.95000        9.33000 0.00070
Cl         4.53000        2.90000       10.03000 0.30060
Cl         6.95000        2.78000       11.71000 0.30060
Cl         6.47000        5.12000        9.94000 0.30060
C         15.62000       11.63000        7.10000 -0.302700
H         15.01000       12.30000        6.49000 0.00070
Cl        16.85000       10.83000        6.12000 0.30060
Cl        16.38000       12.39000        8.53000 0.30060
Cl        14.43000       10.51000        7.73000 0.30060
C          5.05000       12.07000       16.11000 -0.302700
H          5.56000       11.51000       16.90000 0.00070
Cl         6.04000       11.76000       14.63000 0.30060
Cl         3.35000       11.56000       15.93000 0.30060
Cl         5.16000       13.81000       16.57000 0.30060
C         17.20000       19.41000       11.82000 -0.302700
H         16.33000       20.01000       11.54000 0.00070
Cl        18.35000       19.61000       10.42000 0.30060
Cl        17.92000       19.70000       13.40000 0.30060
Cl        16.86000       17.67000       11.87000 0.30060
C          6.99000       21.15000       13.28000 -0.302700
H          7.34000       21.35000       12.26000 0.00070
Cl         5.17000       21.22000       13.43000 0.30060
Cl         7.59000       19.65000       14.04000 0.30060
Cl         7.60000       22.47000       14.24000 0.30060
C         14.15000       21.56000       13.64000 -0.302700
H         15.12000       21.37000       14.11000 0.00070
Cl        13.13000       20.09000       14.03000 0.30060
Cl        13.41000       22.96000       14.49000 0.30060
Cl        14.29000       21.85000       11.88000 0.30060
C         19.82000        4.06000       13.97000 -0.302700
H         20.60000        3.58000       14.58000 0.00070
Cl        19.48000        2.78000       12.83000 0.30060
Cl        18.55000        4.62000       14.98000 0.30060
Cl        20.41000        5.47000       13.07000 0.30060
C          6.61000       10.84000       10.63000 -0.302700
H          6.66000       10.77000        9.54000 0.00070
Cl         5.46000       12.16000       10.96000 0.30060
Cl         6.02000        9.26000       11.24000 0.30060
Cl         8.26000       11.14000       11.24000 0.30060
C         12.39000       18.34000       20.20000 -0.302700
H         13.15000       18.87000       20.78000 0.00070
Cl        11.39000       17.53000       21.48000 0.30060
Cl        11.51000       19.48000       19.20000 0.30060
Cl        13.11000       17.01000       19.33000 0.30060
C         14.91000        6.61000        7.12000 -0.302700
H         13.85000        6.88000        7.07000 0.00070
Cl        15.45000        7.38000        8.63000 0.30060
Cl        14.94000        4.82000        7.15000 0.30060
Cl        15.71000        7.32000        5.74000 0.30060
C         11.53000        1.26000        9.37000 -0.302700
H         12.42000        0.93000        8.83000 0.00070
Cl        11.50000        0.60000       11.00000 0.30060
Cl        11.53000        3.09000        9.31000 0.30060
Cl        10.06000        0.75000        8.55000 0.30060
C          9.70000       16.04000       15.38000 -0.302700
H          9.35000       15.74000       14.39000 0.00070
Cl         8.36000       16.63000       16.42000 0.30060
Cl        10.32000       14.48000       16.01000 0.30060
Cl        10.93000       17.21000       14.96000 0.30060
C          6.03000       14.40000        4.33000 -0.302700
H          6.61000       14.44000        3.40000 0.00070
Cl         6.41000       12.78000        5.05000 0.30060
Cl         6.45000       15.81000        5.37000 0.30060
Cl         4.31000       14.38000        3.84000 0.30060
C          9.90000        6.92000        5.69000 -0.302700
H          9.36000        7.04000        4.75000 0.00070
Cl        10.55000        5.24000        5.71000 0.30060
Cl        11.23000        8.05000        5.54000 0.30060
Cl         8.88000        7.33000        7.09000 0.30060
C         13.32000       11.87000       20.69000 -0.302700
H         12.70000       10.99000       20.47000 0.00070
Cl        13.22000       12.71000       19.08000 0.30060
Cl        12.53000       12.78000       22.06000 0.30060
Cl        14.91000       11.32000       21.23000 0.30060
C          9.03000       14.91000       20.77000 -0.302700
H         10.04000       14.77000       20.38000 0.00070
Cl         8.06000       13.54000       20.21000 0.30060
Cl         9.21000       14.80000       22.56000 0.30060
Cl         8.15000       16.35000       20.23000 0.30060
C         19.22000       11.81000       16.98000 -0.302700
H         19.53000       10.77000       16.85000 0.00070
Cl        17.60000       11.59000       17.71000 0.30060
Cl        20.38000       12.79000       17.90000 0.30060
Cl        19.06000       12.43000       15.32000 0.30060
C         13.78000       14.83000       15.36000 -0.302700
H         13.12000       15.18000       16.15000 0.00070
Cl        13.11000       15.24000       13.79000 0.30060
Cl        15.37000       15.57000       15.60000 0.30060
Cl        13.99000       13.10000       15.44000 0.30060
C          7.03000        4.44000       17.79000 -0.302700
H          6.98000        3.90000       18.74000 0.00070
Cl         8.02000        5.85000       18.24000 0.30060
Cl         7.89000        3.36000       16.61000 0.30060
Cl         5.35000        4.85000       17.25000 0.30060

