%Mem = 2GB
%nproc=16
# b3lyp/6-31g* td 

Butadiene tddft 

0 1
C         11.39000       12.75000       11.55000 
H         11.08000       13.55000       10.89000 
C         10.64000       11.46000       11.68000 
H         11.00000       10.77000       12.44000 
C          9.75000       10.99000       10.78000 
H          9.39000       11.52000        9.90000 
H          9.30000       10.00000       10.86000 
C         12.43000       12.96000       12.44000 
H         12.79000       12.19000       13.12000 
H         12.89000       13.94000       12.36000 
  
C         17.37000       13.89000       12.05000 -0.302700
H         17.30000       13.36000       11.10000 0.00070
Cl        16.00000       15.03000       11.90000 0.30060
Cl        17.26000       12.69000       13.43000 0.30060
Cl        18.86000       14.78000       12.15000 0.30060
C          4.89000       16.26000       14.03000 -0.302700
H          4.54000       17.09000       13.41000 0.00070
Cl         4.31000       16.67000       15.71000 0.30060
Cl         4.16000       14.69000       13.51000 0.30060
Cl         6.62000       16.26000       13.92000 0.30060
C         18.33000       19.36000       10.16000 -0.302700
H         18.16000       18.69000        9.31000 0.00070
Cl        19.95000       19.17000       10.83000 0.30060
Cl        18.04000       20.99000        9.47000 0.30060
Cl        17.04000       19.04000       11.36000 0.30060
C         14.89000       19.03000       15.96000 -0.302700
H         14.03000       18.62000       16.51000 0.00070
Cl        15.76000       17.80000       15.08000 0.30060
Cl        14.24000       20.36000       14.93000 0.30060
Cl        15.91000       19.56000       17.31000 0.30060
C          1.43000        9.45000       15.41000 -0.302700
H          1.83000        9.24000       16.40000 0.00070
Cl         2.41000       10.81000       14.72000 0.30060
Cl         1.47000        7.95000       14.44000 0.30060
Cl        -0.27000       10.06000       15.64000 0.30060
C         16.80000       10.57000        9.87000 -0.302700
H         16.34000        9.64000        9.53000 0.00070
Cl        18.12000       10.40000       11.05000 0.30060
Cl        17.23000       11.47000        8.42000 0.30060
Cl        15.47000       11.48000       10.67000 0.30060
C         12.33000       10.21000       15.90000 -0.302700
H         12.53000       10.76000       14.98000 0.00070
Cl        12.13000        8.44000       15.55000 0.30060
Cl        13.77000       10.45000       17.01000 0.30060
Cl        10.97000       10.91000       16.89000 0.30060
C         13.86000        9.66000        2.39000 -0.302700
H         13.36000       10.63000        2.54000 0.00070
Cl        15.66000        9.76000        2.29000 0.30060
Cl        13.09000        8.68000        3.63000 0.30060
Cl        13.23000        8.86000        0.91000 0.30060
C         15.33000        6.35000        5.37000 -0.302700
H         15.32000        7.44000        5.36000 0.00070
Cl        14.16000        5.62000        6.43000 0.30060
Cl        14.98000        5.70000        3.74000 0.30060
Cl        16.99000        6.01000        5.91000 0.30060
C          9.49000        6.58000       13.52000 -0.302700
H         10.14000        6.73000       14.38000 0.00070
Cl         7.74000        6.60000       14.04000 0.30060
Cl         9.77000        7.92000       12.35000 0.30060
Cl        10.02000        5.04000       12.68000 0.30060
C          9.95000       21.82000       13.19000 -0.302700
H         10.55000       22.16000       12.35000 0.00070
Cl         9.22000       23.25000       13.96000 0.30060
Cl         8.55000       20.90000       12.59000 0.30060
Cl        11.14000       21.07000       14.38000 0.30060
C         15.12000        7.13000       19.72000 -0.302700
H         16.19000        7.04000       19.90000 0.00070
Cl        14.80000        6.77000       17.95000 0.30060
Cl        14.26000        5.94000       20.68000 0.30060
Cl        14.56000        8.77000       19.99000 0.30060
C          4.19000        6.90000        6.89000 -0.302700
H          4.65000        7.48000        6.09000 0.00070
Cl         3.63000        5.37000        6.18000 0.30060
Cl         5.11000        6.56000        8.36000 0.30060
Cl         2.82000        7.90000        7.48000 0.30060
C         10.89000       15.83000       14.97000 -0.302700
H         10.17000       16.16000       15.72000 0.00070
Cl        11.74000       17.27000       14.29000 0.30060
Cl        12.06000       14.58000       15.69000 0.30060
Cl         9.95000       15.25000       13.61000 0.30060
C         13.38000       19.53000       10.33000 -0.302700
H         13.86000       18.59000       10.09000 0.00070
Cl        14.50000       20.86000       10.44000 0.30060
Cl        12.19000       19.91000        9.02000 0.30060
Cl        12.43000       19.29000       11.82000 0.30060
C         12.91000       11.85000       21.72000 -0.302700
H         12.64000       10.95000       22.29000 0.00070
Cl        14.64000       12.05000       21.65000 0.30060
Cl        12.10000       11.60000       20.13000 0.30060
Cl        12.29000       13.31000       22.64000 0.30060
C          6.03000        9.45000       10.95000 -0.302700
H          5.26000        9.48000       10.18000 0.00070
Cl         7.18000        8.38000       10.04000 0.30060
Cl         6.49000       11.14000       11.47000 0.30060
Cl         5.23000        8.64000       12.34000 0.30060
C         19.65000        5.71000        9.61000 -0.302700
H         20.38000        5.36000       10.35000 0.00070
Cl        18.39000        4.44000        9.52000 0.30060
Cl        18.96000        7.11000       10.46000 0.30060
Cl        20.31000        6.08000        8.01000 0.30060
C          7.53000       19.64000       16.01000 -0.302700
H          7.66000       19.77000       14.93000 0.00070
Cl         8.37000       20.97000       16.85000 0.30060
Cl         5.80000       19.70000       16.25000 0.30060
Cl         8.20000       18.03000       16.37000 0.30060
C          4.63000        3.55000       14.99000 -0.302700
H          5.26000        3.82000       15.84000 0.00070
Cl         3.01000        3.20000       15.58000 0.30060
Cl         4.46000        5.02000       13.95000 0.30060
Cl         5.39000        2.22000       14.13000 0.30060
C         20.57000        7.20000       14.62000 -0.302700
H         21.06000        7.55000       15.53000 0.00070
Cl        21.66000        6.74000       13.30000 0.30060
Cl        19.60000        5.89000       15.28000 0.30060
Cl        19.54000        8.60000       14.31000 0.30060
C          5.61000       17.94000        6.04000 -0.302700
H          5.04000       18.76000        6.47000 0.00070
Cl         6.66000       18.84000        4.86000 0.30060
Cl         6.56000       17.30000        7.36000 0.30060
Cl         4.50000       16.75000        5.19000 0.30060
C         10.68000       18.36000        3.70000 -0.302700
H         10.06000       18.77000        2.89000 0.00070
Cl        10.61000       19.65000        4.89000 0.30060
Cl         9.92000       16.78000        4.09000 0.30060
Cl        12.30000       18.25000        2.96000 0.30060
C         11.85000       16.02000        7.19000 -0.302700
H         12.01000       16.90000        6.56000 0.00070
Cl        12.61000       16.34000        8.83000 0.30060
Cl        10.11000       15.68000        7.27000 0.30060
Cl        12.70000       14.71000        6.31000 0.30060
C         11.15000        1.81000       10.33000 -0.302700
H         10.09000        2.00000       10.15000 0.00070
Cl        12.05000        3.27000        9.76000 0.30060
Cl        11.35000        1.51000       12.10000 0.30060
Cl        11.59000        0.31000        9.57000 0.30060
C          7.01000       13.58000        3.18000 -0.302700
H          6.01000       14.01000        3.32000 0.00070
Cl         8.01000       13.99000        4.56000 0.30060
Cl         6.86000       11.77000        2.91000 0.30060
Cl         7.67000       14.36000        1.70000 0.30060
C         17.08000       16.55000        6.14000 -0.302700
H         16.99000       16.39000        5.06000 0.00070
Cl        18.74000       16.36000        6.65000 0.30060
Cl        16.67000       18.24000        6.60000 0.30060
Cl        15.97000       15.41000        6.91000 0.30060
C          7.39000        9.72000       16.64000 -0.302700
H          8.47000        9.69000       16.48000 0.00070
Cl         6.64000        9.75000       15.04000 0.30060
Cl         6.90000        8.20000       17.42000 0.30060
Cl         7.14000       11.09000       17.72000 0.30060
C          8.01000       21.28000        8.35000 -0.302700
H          8.81000       21.17000        7.61000 0.00070
Cl         8.79000       22.46000        9.39000 0.30060
Cl         6.52000       21.69000        7.42000 0.30060
Cl         7.82000       19.76000        9.29000 0.30060
C         22.33000       13.84000       10.39000 -0.302700
H         22.39000       14.25000       11.40000 0.00070
Cl        20.92000       12.78000       10.25000 0.30060
Cl        22.25000       15.08000        9.09000 0.30060
Cl        23.82000       12.80000       10.10000 0.30060
C          7.81000        8.83000        4.94000 -0.302700
H          8.48000        9.44000        4.33000 0.00070
Cl         6.94000        9.95000        6.04000 0.30060
Cl         6.66000        8.17000        3.69000 0.30060
Cl         8.74000        7.49000        5.73000 0.30060
C          5.38000       13.40000        8.83000 -0.302700
H          5.70000       13.28000        9.87000 0.00070
Cl         4.45000       11.86000        8.48000 0.30060
Cl         4.41000       14.95000        8.68000 0.30060
Cl         6.88000       13.42000        7.91000 0.30060
C         12.21000       15.61000       20.20000 -0.302700
H         12.42000       14.56000       20.42000 0.00070
Cl        13.59000       16.19000       19.22000 0.30060
Cl        10.74000       15.59000       19.23000 0.30060
Cl        11.98000       16.65000       21.65000 0.30060
C          9.58000        3.27000       17.21000 -0.302700
H         10.31000        2.52000       17.52000 0.00070
Cl        10.18000        4.85000       17.84000 0.30060
Cl         9.31000        3.11000       15.42000 0.30060
Cl         8.11000        2.79000       18.03000 0.30060
C         16.06000        6.19000       12.96000 -0.302700
H         17.11000        5.95000       13.12000 0.00070
Cl        15.87000        7.93000       13.32000 0.30060
Cl        15.49000        5.87000       11.32000 0.30060
Cl        15.04000        5.26000       14.09000 0.30060
C          2.78000       11.95000        5.26000 -0.302700
H          3.22000       12.50000        6.09000 0.00070
Cl         2.75000       13.01000        3.80000 0.30060
Cl         3.63000       10.44000        4.93000 0.30060
Cl         1.13000       11.84000        6.04000 0.30060
C         13.24000       10.07000        8.20000 -0.302700
H         13.39000       10.15000        9.28000 0.00070
Cl        13.75000       11.57000        7.42000 0.30060
Cl        14.17000        8.60000        7.78000 0.30060
Cl        11.47000        9.79000        7.77000 0.30060
C         18.75000       10.44000        5.26000 -0.302700
H         18.47000       10.61000        6.31000 0.00070
Cl        20.55000       10.37000        5.40000 0.30060
Cl        18.04000        8.94000        4.61000 0.30060
Cl        18.07000       11.89000        4.43000 0.30060
C         10.80000       12.39000        2.85000 -0.302700
H          9.99000       13.09000        3.08000 0.00070
Cl        12.32000       13.32000        2.57000 0.30060
Cl        10.98000       11.37000        4.33000 0.30060
Cl        10.42000       11.44000        1.37000 0.30060
C          6.60000        3.01000        9.23000 -0.302700
H          6.04000        3.92000        8.99000 0.00070
Cl         8.26000        3.74000        9.25000 0.30060
Cl         6.04000        2.40000       10.83000 0.30060
Cl         6.45000        1.86000        7.90000 0.30060

%Mem = 2GB
%nproc=16
# b3lyp/6-31g* td 

Butadiene tddft 

0 1
C         11.39000       12.75000       11.55000 
H         11.08000       13.55000       10.89000 
C         10.64000       11.46000       11.68000 
H         11.00000       10.77000       12.44000 
C          9.75000       10.99000       10.78000 
H          9.39000       11.52000        9.90000 
H          9.30000       10.00000       10.86000 
C         12.43000       12.96000       12.44000 
H         12.79000       12.19000       13.12000 
H         12.89000       13.94000       12.36000 
  
C         17.37000       13.89000       12.05000 -0.302700
H         17.30000       13.36000       11.10000 0.00070
Cl        16.00000       15.03000       11.90000 0.30060
Cl        17.26000       12.69000       13.43000 0.30060
Cl        18.86000       14.78000       12.15000 0.30060
C          4.89000       16.26000       14.03000 -0.302700
H          4.54000       17.09000       13.41000 0.00070
Cl         4.31000       16.67000       15.71000 0.30060
Cl         4.16000       14.69000       13.51000 0.30060
Cl         6.62000       16.26000       13.92000 0.30060
C         18.33000       19.36000       10.16000 -0.302700
H         18.16000       18.69000        9.31000 0.00070
Cl        19.95000       19.17000       10.83000 0.30060
Cl        18.04000       20.99000        9.47000 0.30060
Cl        17.04000       19.04000       11.36000 0.30060
C         14.89000       19.03000       15.96000 -0.302700
H         14.03000       18.62000       16.51000 0.00070
Cl        15.76000       17.80000       15.08000 0.30060
Cl        14.24000       20.36000       14.93000 0.30060
Cl        15.91000       19.56000       17.31000 0.30060
C          1.43000        9.45000       15.41000 -0.302700
H          1.83000        9.24000       16.40000 0.00070
Cl         2.41000       10.81000       14.72000 0.30060
Cl         1.47000        7.95000       14.44000 0.30060
Cl        -0.27000       10.06000       15.64000 0.30060
C         16.80000       10.57000        9.87000 -0.302700
H         16.34000        9.64000        9.53000 0.00070
Cl        18.12000       10.40000       11.05000 0.30060
Cl        17.23000       11.47000        8.42000 0.30060
Cl        15.47000       11.48000       10.67000 0.30060
C         12.33000       10.21000       15.90000 -0.302700
H         12.53000       10.76000       14.98000 0.00070
Cl        12.13000        8.44000       15.55000 0.30060
Cl        13.77000       10.45000       17.01000 0.30060
Cl        10.97000       10.91000       16.89000 0.30060
C         13.86000        9.66000        2.39000 -0.302700
H         13.36000       10.63000        2.54000 0.00070
Cl        15.66000        9.76000        2.29000 0.30060
Cl        13.09000        8.68000        3.63000 0.30060
Cl        13.23000        8.86000        0.91000 0.30060
C         15.33000        6.35000        5.37000 -0.302700
H         15.32000        7.44000        5.36000 0.00070
Cl        14.16000        5.62000        6.43000 0.30060
Cl        14.98000        5.70000        3.74000 0.30060
Cl        16.99000        6.01000        5.91000 0.30060
C          9.49000        6.58000       13.52000 -0.302700
H         10.14000        6.73000       14.38000 0.00070
Cl         7.74000        6.60000       14.04000 0.30060
Cl         9.77000        7.92000       12.35000 0.30060
Cl        10.02000        5.04000       12.68000 0.30060
C          9.95000       21.82000       13.19000 -0.302700
H         10.55000       22.16000       12.35000 0.00070
Cl         9.22000       23.25000       13.96000 0.30060
Cl         8.55000       20.90000       12.59000 0.30060
Cl        11.14000       21.07000       14.38000 0.30060
C         15.12000        7.13000       19.72000 -0.302700
H         16.19000        7.04000       19.90000 0.00070
Cl        14.80000        6.77000       17.95000 0.30060
Cl        14.26000        5.94000       20.68000 0.30060
Cl        14.56000        8.77000       19.99000 0.30060
C          4.19000        6.90000        6.89000 -0.302700
H          4.65000        7.48000        6.09000 0.00070
Cl         3.63000        5.37000        6.18000 0.30060
Cl         5.11000        6.56000        8.36000 0.30060
Cl         2.82000        7.90000        7.48000 0.30060
C         10.89000       15.83000       14.97000 -0.302700
H         10.17000       16.16000       15.72000 0.00070
Cl        11.74000       17.27000       14.29000 0.30060
Cl        12.06000       14.58000       15.69000 0.30060
Cl         9.95000       15.25000       13.61000 0.30060
C         13.38000       19.53000       10.33000 -0.302700
H         13.86000       18.59000       10.09000 0.00070
Cl        14.50000       20.86000       10.44000 0.30060
Cl        12.19000       19.91000        9.02000 0.30060
Cl        12.43000       19.29000       11.82000 0.30060
C         12.91000       11.85000       21.72000 -0.302700
H         12.64000       10.95000       22.29000 0.00070
Cl        14.64000       12.05000       21.65000 0.30060
Cl        12.10000       11.60000       20.13000 0.30060
Cl        12.29000       13.31000       22.64000 0.30060
C          6.03000        9.45000       10.95000 -0.302700
H          5.26000        9.48000       10.18000 0.00070
Cl         7.18000        8.38000       10.04000 0.30060
Cl         6.49000       11.14000       11.47000 0.30060
Cl         5.23000        8.64000       12.34000 0.30060
C         19.65000        5.71000        9.61000 -0.302700
H         20.38000        5.36000       10.35000 0.00070
Cl        18.39000        4.44000        9.52000 0.30060
Cl        18.96000        7.11000       10.46000 0.30060
Cl        20.31000        6.08000        8.01000 0.30060
C          7.53000       19.64000       16.01000 -0.302700
H          7.66000       19.77000       14.93000 0.00070
Cl         8.37000       20.97000       16.85000 0.30060
Cl         5.80000       19.70000       16.25000 0.30060
Cl         8.20000       18.03000       16.37000 0.30060
C          4.63000        3.55000       14.99000 -0.302700
H          5.26000        3.82000       15.84000 0.00070
Cl         3.01000        3.20000       15.58000 0.30060
Cl         4.46000        5.02000       13.95000 0.30060
Cl         5.39000        2.22000       14.13000 0.30060
C         20.57000        7.20000       14.62000 -0.302700
H         21.06000        7.55000       15.53000 0.00070
Cl        21.66000        6.74000       13.30000 0.30060
Cl        19.60000        5.89000       15.28000 0.30060
Cl        19.54000        8.60000       14.31000 0.30060
C          5.61000       17.94000        6.04000 -0.302700
H          5.04000       18.76000        6.47000 0.00070
Cl         6.66000       18.84000        4.86000 0.30060
Cl         6.56000       17.30000        7.36000 0.30060
Cl         4.50000       16.75000        5.19000 0.30060
C         10.68000       18.36000        3.70000 -0.302700
H         10.06000       18.77000        2.89000 0.00070
Cl        10.61000       19.65000        4.89000 0.30060
Cl         9.92000       16.78000        4.09000 0.30060
Cl        12.30000       18.25000        2.96000 0.30060
C         11.85000       16.02000        7.19000 -0.302700
H         12.01000       16.90000        6.56000 0.00070
Cl        12.61000       16.34000        8.83000 0.30060
Cl        10.11000       15.68000        7.27000 0.30060
Cl        12.70000       14.71000        6.31000 0.30060
C         11.15000        1.81000       10.33000 -0.302700
H         10.09000        2.00000       10.15000 0.00070
Cl        12.05000        3.27000        9.76000 0.30060
Cl        11.35000        1.51000       12.10000 0.30060
Cl        11.59000        0.31000        9.57000 0.30060
C          7.01000       13.58000        3.18000 -0.302700
H          6.01000       14.01000        3.32000 0.00070
Cl         8.01000       13.99000        4.56000 0.30060
Cl         6.86000       11.77000        2.91000 0.30060
Cl         7.67000       14.36000        1.70000 0.30060
C         17.08000       16.55000        6.14000 -0.302700
H         16.99000       16.39000        5.06000 0.00070
Cl        18.74000       16.36000        6.65000 0.30060
Cl        16.67000       18.24000        6.60000 0.30060
Cl        15.97000       15.41000        6.91000 0.30060
C          7.39000        9.72000       16.64000 -0.302700
H          8.47000        9.69000       16.48000 0.00070
Cl         6.64000        9.75000       15.04000 0.30060
Cl         6.90000        8.20000       17.42000 0.30060
Cl         7.14000       11.09000       17.72000 0.30060
C          8.01000       21.28000        8.35000 -0.302700
H          8.81000       21.17000        7.61000 0.00070
Cl         8.79000       22.46000        9.39000 0.30060
Cl         6.52000       21.69000        7.42000 0.30060
Cl         7.82000       19.76000        9.29000 0.30060
C         22.33000       13.84000       10.39000 -0.302700
H         22.39000       14.25000       11.40000 0.00070
Cl        20.92000       12.78000       10.25000 0.30060
Cl        22.25000       15.08000        9.09000 0.30060
Cl        23.82000       12.80000       10.10000 0.30060
C          7.81000        8.83000        4.94000 -0.302700
H          8.48000        9.44000        4.33000 0.00070
Cl         6.94000        9.95000        6.04000 0.30060
Cl         6.66000        8.17000        3.69000 0.30060
Cl         8.74000        7.49000        5.73000 0.30060
C          5.38000       13.40000        8.83000 -0.302700
H          5.70000       13.28000        9.87000 0.00070
Cl         4.45000       11.86000        8.48000 0.30060
Cl         4.41000       14.95000        8.68000 0.30060
Cl         6.88000       13.42000        7.91000 0.30060
C         12.21000       15.61000       20.20000 -0.302700
H         12.42000       14.56000       20.42000 0.00070
Cl        13.59000       16.19000       19.22000 0.30060
Cl        10.74000       15.59000       19.23000 0.30060
Cl        11.98000       16.65000       21.65000 0.30060
C          9.58000        3.27000       17.21000 -0.302700
H         10.31000        2.52000       17.52000 0.00070
Cl        10.18000        4.85000       17.84000 0.30060
Cl         9.31000        3.11000       15.42000 0.30060
Cl         8.11000        2.79000       18.03000 0.30060
C         16.06000        6.19000       12.96000 -0.302700
H         17.11000        5.95000       13.12000 0.00070
Cl        15.87000        7.93000       13.32000 0.30060
Cl        15.49000        5.87000       11.32000 0.30060
Cl        15.04000        5.26000       14.09000 0.30060
C          2.78000       11.95000        5.26000 -0.302700
H          3.22000       12.50000        6.09000 0.00070
Cl         2.75000       13.01000        3.80000 0.30060
Cl         3.63000       10.44000        4.93000 0.30060
Cl         1.13000       11.84000        6.04000 0.30060
C         13.24000       10.07000        8.20000 -0.302700
H         13.39000       10.15000        9.28000 0.00070
Cl        13.75000       11.57000        7.42000 0.30060
Cl        14.17000        8.60000        7.78000 0.30060
Cl        11.47000        9.79000        7.77000 0.30060
C         18.75000       10.44000        5.26000 -0.302700
H         18.47000       10.61000        6.31000 0.00070
Cl        20.55000       10.37000        5.40000 0.30060
Cl        18.04000        8.94000        4.61000 0.30060
Cl        18.07000       11.89000        4.43000 0.30060
C         10.80000       12.39000        2.85000 -0.302700
H          9.99000       13.09000        3.08000 0.00070
Cl        12.32000       13.32000        2.57000 0.30060
Cl        10.98000       11.37000        4.33000 0.30060
Cl        10.42000       11.44000        1.37000 0.30060
C          6.60000        3.01000        9.23000 -0.302700
H          6.04000        3.92000        8.99000 0.00070
Cl         8.26000        3.74000        9.25000 0.30060
Cl         6.04000        2.40000       10.83000 0.30060
Cl         6.45000        1.86000        7.90000 0.30060

