%Mem = 2GB
%nproc=16
# b3lyp/6-31g* td 

Butadiene tddft 

0 1
C         11.05000       11.44000       12.13000 
H         10.43000       10.55000       12.13000 
C         11.38000       12.10000       13.38000 
H         12.10000       12.91000       13.25000 
C         10.93000       11.84000       14.59000 
H         10.30000       10.99000       14.79000 
H         11.06000       12.50000       15.44000 
C         11.67000       11.85000       11.07000 
H         12.37000       12.67000       11.23000 
H         11.58000       11.38000       10.10000 
  
C          6.65000       14.53000       11.60000 -0.302700
H          7.19000       13.62000       11.34000 0.00070
Cl         7.69000       15.57000       12.60000 0.30060
Cl         6.20000       15.39000       10.05000 0.30060
Cl         5.19000       14.08000       12.42000 0.30060
C          9.91000       19.44000       20.00000 -0.302700
H         10.48000       19.21000       20.90000 0.00070
Cl        11.03000       19.70000       18.66000 0.30060
Cl         8.60000       18.34000       19.62000 0.30060
Cl         9.03000       20.95000       20.47000 0.30060
C          4.21000       19.91000       12.80000 -0.302700
H          3.36000       20.21000       12.18000 0.00070
Cl         5.15000       21.37000       13.10000 0.30060
Cl         3.32000       19.38000       14.24000 0.30060
Cl         4.97000       18.66000       11.83000 0.30060
C         16.94000       19.69000       16.37000 -0.302700
H         16.24000       18.91000       16.67000 0.00070
Cl        15.93000       21.16000       16.32000 0.30060
Cl        18.35000       19.69000       17.48000 0.30060
Cl        17.45000       19.17000       14.74000 0.30060
C          7.38000        9.19000        3.44000 -0.302700
H          7.35000        8.11000        3.57000 0.00070
Cl         8.76000        9.71000        4.40000 0.30060
Cl         7.58000        9.51000        1.70000 0.30060
Cl         5.81000        9.69000        4.12000 0.30060
C          9.13000        4.47000       11.32000 -0.302700
H          9.15000        3.39000       11.51000 0.00070
Cl         9.16000        5.13000       13.01000 0.30060
Cl        10.59000        4.85000       10.41000 0.30060
Cl         7.69000        4.93000       10.32000 0.30060
C          7.04000       20.43000        9.36000 -0.302700
H          6.72000       20.58000       10.39000 0.00070
Cl         7.69000       21.94000        8.79000 0.30060
Cl         8.21000       19.17000        9.01000 0.30060
Cl         5.57000       20.20000        8.37000 0.30060
C          4.96000        6.38000       12.02000 -0.302700
H          5.32000        5.37000       11.81000 0.00070
Cl         6.19000        7.28000       12.96000 0.30060
Cl         4.57000        7.16000       10.53000 0.30060
Cl         3.44000        6.29000       12.89000 0.30060
C         13.98000        3.28000       14.79000 -0.302700
H         15.03000        3.56000       14.62000 0.00070
Cl        13.11000        3.35000       13.25000 0.30060
Cl        14.27000        1.62000       15.40000 0.30060
Cl        13.17000        4.26000       16.06000 0.30060
C         19.35000       15.39000       11.24000 -0.302700
H         18.66000       16.19000       10.99000 0.00070
Cl        20.86000       16.08000       11.84000 0.30060
Cl        18.72000       14.55000       12.69000 0.30060
Cl        19.57000       14.27000        9.74000 0.30060
C         10.91000        7.47000       16.59000 -0.302700
H         11.19000        6.42000       16.72000 0.00070
Cl         9.36000        7.55000       15.70000 0.30060
Cl        10.82000        7.88000       18.32000 0.30060
Cl        12.19000        8.41000       15.78000 0.30060
C         20.36000       15.28000       16.63000 -0.302700
H         20.63000       14.32000       16.19000 0.00070
Cl        20.65000       15.40000       18.35000 0.30060
Cl        21.15000       16.66000       15.74000 0.30060
Cl        18.67000       15.62000       16.08000 0.30060
C         11.96000       11.34000        4.64000 -0.302700
H         11.23000       10.99000        3.90000 0.00070
Cl        12.78000       12.83000        4.03000 0.30060
Cl        11.09000       11.60000        6.13000 0.30060
Cl        13.13000       10.05000        4.91000 0.30060
C          9.60000       16.02000        9.29000 -0.302700
H          8.53000       16.22000        9.16000 0.00070
Cl        10.26000       16.77000       10.76000 0.30060
Cl         9.80000       14.28000        9.50000 0.30060
Cl        10.40000       16.65000        7.82000 0.30060
C          3.09000       10.31000       10.99000 -0.302700
H          3.89000        9.69000       11.42000 0.00070
Cl         3.85000       11.72000       10.22000 0.30060
Cl         1.95000        9.45000        9.93000 0.30060
Cl         2.37000       10.74000       12.53000 0.30060
C          5.72000       13.45000       19.67000 -0.302700
H          5.06000       14.03000       19.02000 0.00070
Cl         5.05000       11.94000       20.30000 0.30060
Cl         7.18000       13.22000       18.72000 0.30060
Cl         6.25000       14.42000       21.07000 0.30060
C         14.89000       14.78000        8.23000 -0.302700
H         14.71000       15.31000        9.17000 0.00070
Cl        16.56000       15.05000        7.59000 0.30060
Cl        14.60000       13.06000        8.48000 0.30060
Cl        13.74000       15.28000        7.04000 0.30060
C          7.62000        8.33000       21.20000 -0.302700
H          7.09000        8.80000       22.03000 0.00070
Cl         7.33000        9.37000       19.83000 0.30060
Cl         9.38000        8.33000       21.52000 0.30060
Cl         6.85000        6.73000       20.96000 0.30060
C         13.44000       19.84000       10.29000 -0.302700
H         13.35000       20.91000       10.48000 0.00070
Cl        12.34000       19.59000        8.87000 0.30060
Cl        15.19000       19.67000       10.03000 0.30060
Cl        13.03000       18.92000       11.77000 0.30060
C          5.31000       16.44000        6.04000 -0.302700
H          5.13000       17.07000        6.91000 0.00070
Cl         6.95000       16.73000        5.48000 0.30060
Cl         4.98000       14.74000        6.56000 0.30060
Cl         4.17000       16.95000        4.77000 0.30060
C          4.05000        6.72000       18.66000 -0.302700
H          4.71000        6.74000       19.53000 0.00070
Cl         4.93000        6.85000       17.14000 0.30060
Cl         3.16000        5.19000       18.65000 0.30060
Cl         2.84000        7.99000       18.76000 0.30060
C         17.52000       10.10000        5.91000 -0.302700
H         17.15000       10.81000        5.18000 0.00070
Cl        18.98000        9.25000        5.27000 0.30060
Cl        17.85000       11.04000        7.36000 0.30060
Cl        16.25000        8.89000        6.32000 0.30060
C          6.98000       10.73000       14.79000 -0.302700
H          7.81000       10.05000       14.60000 0.00070
Cl         7.57000       12.38000       15.00000 0.30060
Cl         5.78000       10.54000       13.51000 0.30060
Cl         6.28000        9.96000       16.27000 0.30060
C         19.12000       19.89000        9.88000 -0.302700
H         18.49000       19.99000        8.99000 0.00070
Cl        19.33000       21.52000       10.58000 0.30060
Cl        18.01000       18.84000       10.82000 0.30060
Cl        20.61000       19.07000        9.40000 0.30060
C          9.59000       20.34000       13.29000 -0.302700
H         10.01000       20.45000       12.29000 0.00070
Cl         8.56000       18.85000       13.25000 0.30060
Cl        10.90000       20.21000       14.53000 0.30060
Cl         8.61000       21.74000       13.75000 0.30060
C         18.85000        3.76000       13.75000 -0.302700
H         19.76000        3.55000       14.32000 0.00070
Cl        18.15000        2.21000       13.25000 0.30060
Cl        17.75000        4.66000       14.84000 0.30060
Cl        19.38000        4.75000       12.46000 0.30060
C          7.68000       10.36000        8.66000 -0.302700
H          8.44000       11.14000        8.73000 0.00070
Cl         6.28000       10.94000        7.67000 0.30060
Cl         8.50000        8.97000        7.94000 0.30060
Cl         7.41000       10.11000       10.44000 0.30060
C         14.97000       18.88000       20.42000 -0.302700
H         15.92000       18.49000       20.80000 0.00070
Cl        13.65000       19.02000       21.66000 0.30060
Cl        15.53000       20.56000       19.89000 0.30060
Cl        14.52000       17.91000       18.99000 0.30060
C         16.53000        2.91000        8.37000 -0.302700
H         16.40000        1.93000        7.91000 0.00070
Cl        14.95000        3.44000        8.98000 0.30060
Cl        17.80000        2.91000        9.66000 0.30060
Cl        17.07000        3.94000        7.05000 0.30060
C         10.24000       16.76000       16.05000 -0.302700
H         10.49000       17.72000       15.61000 0.00070
Cl         8.54000       16.69000       16.47000 0.30060
Cl        10.49000       15.59000       14.75000 0.30060
Cl        11.23000       16.37000       17.39000 0.30060
C          6.43000       14.44000        2.98000 -0.302700
H          6.05000       15.16000        3.71000 0.00070
Cl         6.72000       15.34000        1.53000 0.30060
Cl         7.86000       13.64000        3.69000 0.30060
Cl         5.14000       13.17000        2.94000 0.30060
C         11.09000        5.83000        5.48000 -0.302700
H         11.22000        6.85000        5.11000 0.00070
Cl         9.57000        5.89000        6.51000 0.30060
Cl        11.04000        4.65000        4.14000 0.30060
Cl        12.66000        5.46000        6.31000 0.30060
C         16.63000       11.71000       17.49000 -0.302700
H         15.92000       12.49000       17.78000 0.00070
Cl        17.36000       12.18000       15.93000 0.30060
Cl        17.85000       11.79000       18.78000 0.30060
Cl        16.00000       10.01000       17.40000 0.30060
C          2.72000       13.21000       15.82000 -0.302700
H          3.12000       12.82000       14.88000 0.00070
Cl         1.19000       14.09000       15.76000 0.30060
Cl         2.51000       11.82000       16.86000 0.30060
Cl         3.98000       14.35000       16.52000 0.30060
C         11.39000       13.15000       19.06000 -0.302700
H         11.13000       13.64000       18.11000 0.00070
Cl        10.17000       11.85000       19.16000 0.30060
Cl        12.97000       12.39000       19.09000 0.30060
Cl        10.95000       14.38000       20.27000 0.30060
C          3.59000        6.79000        6.55000 -0.302700
H          2.96000        7.52000        7.07000 0.00070
Cl         5.18000        7.36000        7.08000 0.30060
Cl         3.18000        5.28000        7.38000 0.30060
Cl         3.28000        6.82000        4.79000 0.30060
C         20.78000       10.53000       15.58000 -0.302700
H         20.15000       10.56000       16.47000 0.00070
Cl        20.66000       12.13000       14.81000 0.30060
Cl        22.37000       10.17000       16.27000 0.30060
Cl        20.24000        9.25000       14.45000 0.30060
C         14.35000       15.04000       12.78000 -0.302700
H         13.75000       14.89000       13.69000 0.00070
Cl        13.39000       15.63000       11.44000 0.30060
Cl        15.65000       16.11000       13.33000 0.30060
Cl        15.02000       13.43000       12.37000 0.30060
C          8.44000        3.67000       17.27000 -0.302700
H          8.21000        2.76000       17.83000 0.00070
Cl         8.47000        4.98000       18.44000 0.30060
Cl        10.08000        3.47000       16.58000 0.30060
Cl         7.20000        4.10000       16.14000 0.30060

%Mem = 2GB
%nproc=16
# b3lyp/6-31g* td 

Butadiene tddft 

0 1
C         11.05000       11.44000       12.13000 
H         10.43000       10.55000       12.13000 
C         11.38000       12.10000       13.38000 
H         12.10000       12.91000       13.25000 
C         10.93000       11.84000       14.59000 
H         10.30000       10.99000       14.79000 
H         11.06000       12.50000       15.44000 
C         11.67000       11.85000       11.07000 
H         12.37000       12.67000       11.23000 
H         11.58000       11.38000       10.10000 
  
C          6.65000       14.53000       11.60000 -0.302700
H          7.19000       13.62000       11.34000 0.00070
Cl         7.69000       15.57000       12.60000 0.30060
Cl         6.20000       15.39000       10.05000 0.30060
Cl         5.19000       14.08000       12.42000 0.30060
C          9.91000       19.44000       20.00000 -0.302700
H         10.48000       19.21000       20.90000 0.00070
Cl        11.03000       19.70000       18.66000 0.30060
Cl         8.60000       18.34000       19.62000 0.30060
Cl         9.03000       20.95000       20.47000 0.30060
C          4.21000       19.91000       12.80000 -0.302700
H          3.36000       20.21000       12.18000 0.00070
Cl         5.15000       21.37000       13.10000 0.30060
Cl         3.32000       19.38000       14.24000 0.30060
Cl         4.97000       18.66000       11.83000 0.30060
C         16.94000       19.69000       16.37000 -0.302700
H         16.24000       18.91000       16.67000 0.00070
Cl        15.93000       21.16000       16.32000 0.30060
Cl        18.35000       19.69000       17.48000 0.30060
Cl        17.45000       19.17000       14.74000 0.30060
C          7.38000        9.19000        3.44000 -0.302700
H          7.35000        8.11000        3.57000 0.00070
Cl         8.76000        9.71000        4.40000 0.30060
Cl         7.58000        9.51000        1.70000 0.30060
Cl         5.81000        9.69000        4.12000 0.30060
C          9.13000        4.47000       11.32000 -0.302700
H          9.15000        3.39000       11.51000 0.00070
Cl         9.16000        5.13000       13.01000 0.30060
Cl        10.59000        4.85000       10.41000 0.30060
Cl         7.69000        4.93000       10.32000 0.30060
C          7.04000       20.43000        9.36000 -0.302700
H          6.72000       20.58000       10.39000 0.00070
Cl         7.69000       21.94000        8.79000 0.30060
Cl         8.21000       19.17000        9.01000 0.30060
Cl         5.57000       20.20000        8.37000 0.30060
C          4.96000        6.38000       12.02000 -0.302700
H          5.32000        5.37000       11.81000 0.00070
Cl         6.19000        7.28000       12.96000 0.30060
Cl         4.57000        7.16000       10.53000 0.30060
Cl         3.44000        6.29000       12.89000 0.30060
C         13.98000        3.28000       14.79000 -0.302700
H         15.03000        3.56000       14.62000 0.00070
Cl        13.11000        3.35000       13.25000 0.30060
Cl        14.27000        1.62000       15.40000 0.30060
Cl        13.17000        4.26000       16.06000 0.30060
C         19.35000       15.39000       11.24000 -0.302700
H         18.66000       16.19000       10.99000 0.00070
Cl        20.86000       16.08000       11.84000 0.30060
Cl        18.72000       14.55000       12.69000 0.30060
Cl        19.57000       14.27000        9.74000 0.30060
C         10.91000        7.47000       16.59000 -0.302700
H         11.19000        6.42000       16.72000 0.00070
Cl         9.36000        7.55000       15.70000 0.30060
Cl        10.82000        7.88000       18.32000 0.30060
Cl        12.19000        8.41000       15.78000 0.30060
C         20.36000       15.28000       16.63000 -0.302700
H         20.63000       14.32000       16.19000 0.00070
Cl        20.65000       15.40000       18.35000 0.30060
Cl        21.15000       16.66000       15.74000 0.30060
Cl        18.67000       15.62000       16.08000 0.30060
C         11.96000       11.34000        4.64000 -0.302700
H         11.23000       10.99000        3.90000 0.00070
Cl        12.78000       12.83000        4.03000 0.30060
Cl        11.09000       11.60000        6.13000 0.30060
Cl        13.13000       10.05000        4.91000 0.30060
C          9.60000       16.02000        9.29000 -0.302700
H          8.53000       16.22000        9.16000 0.00070
Cl        10.26000       16.77000       10.76000 0.30060
Cl         9.80000       14.28000        9.50000 0.30060
Cl        10.40000       16.65000        7.82000 0.30060
C          3.09000       10.31000       10.99000 -0.302700
H          3.89000        9.69000       11.42000 0.00070
Cl         3.85000       11.72000       10.22000 0.30060
Cl         1.95000        9.45000        9.93000 0.30060
Cl         2.37000       10.74000       12.53000 0.30060
C          5.72000       13.45000       19.67000 -0.302700
H          5.06000       14.03000       19.02000 0.00070
Cl         5.05000       11.94000       20.30000 0.30060
Cl         7.18000       13.22000       18.72000 0.30060
Cl         6.25000       14.42000       21.07000 0.30060
C         14.89000       14.78000        8.23000 -0.302700
H         14.71000       15.31000        9.17000 0.00070
Cl        16.56000       15.05000        7.59000 0.30060
Cl        14.60000       13.06000        8.48000 0.30060
Cl        13.74000       15.28000        7.04000 0.30060
C          7.62000        8.33000       21.20000 -0.302700
H          7.09000        8.80000       22.03000 0.00070
Cl         7.33000        9.37000       19.83000 0.30060
Cl         9.38000        8.33000       21.52000 0.30060
Cl         6.85000        6.73000       20.96000 0.30060
C         13.44000       19.84000       10.29000 -0.302700
H         13.35000       20.91000       10.48000 0.00070
Cl        12.34000       19.59000        8.87000 0.30060
Cl        15.19000       19.67000       10.03000 0.30060
Cl        13.03000       18.92000       11.77000 0.30060
C          5.31000       16.44000        6.04000 -0.302700
H          5.13000       17.07000        6.91000 0.00070
Cl         6.95000       16.73000        5.48000 0.30060
Cl         4.98000       14.74000        6.56000 0.30060
Cl         4.17000       16.95000        4.77000 0.30060
C          4.05000        6.72000       18.66000 -0.302700
H          4.71000        6.74000       19.53000 0.00070
Cl         4.93000        6.85000       17.14000 0.30060
Cl         3.16000        5.19000       18.65000 0.30060
Cl         2.84000        7.99000       18.76000 0.30060
C         17.52000       10.10000        5.91000 -0.302700
H         17.15000       10.81000        5.18000 0.00070
Cl        18.98000        9.25000        5.27000 0.30060
Cl        17.85000       11.04000        7.36000 0.30060
Cl        16.25000        8.89000        6.32000 0.30060
C          6.98000       10.73000       14.79000 -0.302700
H          7.81000       10.05000       14.60000 0.00070
Cl         7.57000       12.38000       15.00000 0.30060
Cl         5.78000       10.54000       13.51000 0.30060
Cl         6.28000        9.96000       16.27000 0.30060
C         19.12000       19.89000        9.88000 -0.302700
H         18.49000       19.99000        8.99000 0.00070
Cl        19.33000       21.52000       10.58000 0.30060
Cl        18.01000       18.84000       10.82000 0.30060
Cl        20.61000       19.07000        9.40000 0.30060
C          9.59000       20.34000       13.29000 -0.302700
H         10.01000       20.45000       12.29000 0.00070
Cl         8.56000       18.85000       13.25000 0.30060
Cl        10.90000       20.21000       14.53000 0.30060
Cl         8.61000       21.74000       13.75000 0.30060
C         18.85000        3.76000       13.75000 -0.302700
H         19.76000        3.55000       14.32000 0.00070
Cl        18.15000        2.21000       13.25000 0.30060
Cl        17.75000        4.66000       14.84000 0.30060
Cl        19.38000        4.75000       12.46000 0.30060
C          7.68000       10.36000        8.66000 -0.302700
H          8.44000       11.14000        8.73000 0.00070
Cl         6.28000       10.94000        7.67000 0.30060
Cl         8.50000        8.97000        7.94000 0.30060
Cl         7.41000       10.11000       10.44000 0.30060
C         14.97000       18.88000       20.42000 -0.302700
H         15.92000       18.49000       20.80000 0.00070
Cl        13.65000       19.02000       21.66000 0.30060
Cl        15.53000       20.56000       19.89000 0.30060
Cl        14.52000       17.91000       18.99000 0.30060
C         16.53000        2.91000        8.37000 -0.302700
H         16.40000        1.93000        7.91000 0.00070
Cl        14.95000        3.44000        8.98000 0.30060
Cl        17.80000        2.91000        9.66000 0.30060
Cl        17.07000        3.94000        7.05000 0.30060
C         10.24000       16.76000       16.05000 -0.302700
H         10.49000       17.72000       15.61000 0.00070
Cl         8.54000       16.69000       16.47000 0.30060
Cl        10.49000       15.59000       14.75000 0.30060
Cl        11.23000       16.37000       17.39000 0.30060
C          6.43000       14.44000        2.98000 -0.302700
H          6.05000       15.16000        3.71000 0.00070
Cl         6.72000       15.34000        1.53000 0.30060
Cl         7.86000       13.64000        3.69000 0.30060
Cl         5.14000       13.17000        2.94000 0.30060
C         11.09000        5.83000        5.48000 -0.302700
H         11.22000        6.85000        5.11000 0.00070
Cl         9.57000        5.89000        6.51000 0.30060
Cl        11.04000        4.65000        4.14000 0.30060
Cl        12.66000        5.46000        6.31000 0.30060
C         16.63000       11.71000       17.49000 -0.302700
H         15.92000       12.49000       17.78000 0.00070
Cl        17.36000       12.18000       15.93000 0.30060
Cl        17.85000       11.79000       18.78000 0.30060
Cl        16.00000       10.01000       17.40000 0.30060
C          2.72000       13.21000       15.82000 -0.302700
H          3.12000       12.82000       14.88000 0.00070
Cl         1.19000       14.09000       15.76000 0.30060
Cl         2.51000       11.82000       16.86000 0.30060
Cl         3.98000       14.35000       16.52000 0.30060
C         11.39000       13.15000       19.06000 -0.302700
H         11.13000       13.64000       18.11000 0.00070
Cl        10.17000       11.85000       19.16000 0.30060
Cl        12.97000       12.39000       19.09000 0.30060
Cl        10.95000       14.38000       20.27000 0.30060
C          3.59000        6.79000        6.55000 -0.302700
H          2.96000        7.52000        7.07000 0.00070
Cl         5.18000        7.36000        7.08000 0.30060
Cl         3.18000        5.28000        7.38000 0.30060
Cl         3.28000        6.82000        4.79000 0.30060
C         20.78000       10.53000       15.58000 -0.302700
H         20.15000       10.56000       16.47000 0.00070
Cl        20.66000       12.13000       14.81000 0.30060
Cl        22.37000       10.17000       16.27000 0.30060
Cl        20.24000        9.25000       14.45000 0.30060
C         14.35000       15.04000       12.78000 -0.302700
H         13.75000       14.89000       13.69000 0.00070
Cl        13.39000       15.63000       11.44000 0.30060
Cl        15.65000       16.11000       13.33000 0.30060
Cl        15.02000       13.43000       12.37000 0.30060
C          8.44000        3.67000       17.27000 -0.302700
H          8.21000        2.76000       17.83000 0.00070
Cl         8.47000        4.98000       18.44000 0.30060
Cl        10.08000        3.47000       16.58000 0.30060
Cl         7.20000        4.10000       16.14000 0.30060

