%Mem = 2GB
%nproc=16
# b3lyp/6-31g* td 

Butadiene tddft 

0 1
C         11.25000       11.09000       12.09000 
H         10.33000       11.57000       12.41000 
C         12.44000       11.03000       12.97000 
H         13.33000       10.50000       12.64000 
C         12.45000       11.56000       14.21000 
H         11.61000       12.00000       14.73000 
H         13.38000       11.52000       14.78000 
C         11.24000       10.53000       10.90000 
H         12.23000       10.21000       10.57000 
H         10.40000       10.49000       10.21000 
  
C          8.88000       13.72000       10.59000 -0.302700
H          9.71000       13.26000       11.13000 0.00070
Cl         9.68000       14.82000        9.33000 0.30060
Cl         7.77000       12.48000        9.82000 0.30060
Cl         7.98000       14.80000       11.74000 0.30060
C          5.12000        6.34000       17.64000 -0.302700
H          4.34000        5.59000       17.53000 0.00070
Cl         4.46000        7.99000       17.54000 0.30060
Cl         5.92000        6.02000       19.26000 0.30060
Cl         6.48000        6.02000       16.61000 0.30060
C         11.89000        7.20000        8.02000 -0.302700
H         12.52000        6.30000        8.03000 0.00070
Cl        13.15000        8.45000        7.80000 0.30060
Cl        10.83000        7.10000        6.58000 0.30060
Cl        10.99000        7.29000        9.53000 0.30060
C         18.51000       13.39000       15.11000 -0.302700
H         19.59000       13.22000       15.17000 0.00070
Cl        17.81000       12.08000       14.05000 0.30060
Cl        17.88000       13.44000       16.83000 0.30060
Cl        18.20000       15.00000       14.36000 0.30060
C          2.21000       10.01000        8.76000 -0.302700
H          2.47000        9.10000        8.23000 0.00070
Cl         1.47000        9.67000       10.35000 0.30060
Cl         3.58000       11.02000        9.01000 0.30060
Cl         1.03000       10.88000        7.70000 0.30060
C          7.92000       13.17000        6.23000 -0.302700
H          8.20000       13.40000        7.26000 0.00070
Cl         9.59000       12.94000        5.77000 0.30060
Cl         6.91000       11.79000        6.00000 0.30060
Cl         7.28000       14.63000        5.34000 0.30060
C          7.71000        8.91000       19.28000 -0.302700
H          7.21000        8.06000       18.79000 0.00070
Cl         6.51000        9.81000       20.17000 0.30060
Cl         8.82000        8.33000       20.56000 0.30060
Cl         8.64000        9.87000       18.07000 0.30060
C          6.60000       10.26000       13.67000 -0.302700
H          7.11000       10.79000       14.47000 0.00070
Cl         7.79000        9.44000       12.63000 0.30060
Cl         5.54000        9.05000       14.42000 0.30060
Cl         5.73000       11.41000       12.63000 0.30060
C         11.89000        2.38000       10.08000 -0.302700
H         11.38000        1.56000       10.60000 0.00070
Cl        13.58000        1.91000        9.57000 0.30060
Cl        10.98000        2.81000        8.66000 0.30060
Cl        12.02000        3.75000       11.15000 0.30060
C         17.16000       15.27000       10.87000 -0.302700
H         16.65000       15.32000       11.83000 0.00070
Cl        17.74000       13.61000       10.65000 0.30060
Cl        15.79000       15.70000        9.80000 0.30060
Cl        18.38000       16.60000       10.77000 0.30060
C         17.20000        9.54000       10.63000 -0.302700
H         18.03000       10.16000       10.98000 0.00070
Cl        17.87000        7.93000       10.87000 0.30060
Cl        15.74000        9.86000       11.62000 0.30060
Cl        16.82000        9.77000        8.92000 0.30060
C          7.59000       19.88000        7.24000 -0.302700
H          7.45000       20.32000        8.23000 0.00070
Cl         8.29000       21.05000        6.08000 0.30060
Cl         8.73000       18.56000        7.51000 0.30060
Cl         6.02000       19.22000        6.60000 0.30060
C         12.83000        7.11000       18.36000 -0.302700
H         12.28000        7.45000       17.48000 0.00070
Cl        11.70000        5.98000       19.19000 0.30060
Cl        14.26000        6.42000       17.60000 0.30060
Cl        13.13000        8.50000       19.42000 0.30060
C         11.61000        7.33000       13.67000 -0.302700
H         11.07000        7.92000       12.92000 0.00070
Cl        11.64000        8.40000       15.08000 0.30060
Cl        10.62000        5.83000       13.81000 0.30060
Cl        13.21000        6.96000       13.11000 0.30060
C         12.93000       18.16000       10.04000 -0.302700
H         13.29000       17.88000        9.05000 0.00070
Cl        11.49000       19.21000        9.79000 0.30060
Cl        12.23000       16.79000       10.91000 0.30060
Cl        14.10000       18.98000       11.10000 0.30060
C         18.61000       19.00000       14.88000 -0.302700
H         18.55000       18.45000       13.93000 0.00070
Cl        20.22000       19.20000       15.53000 0.30060
Cl        17.80000       20.52000       14.42000 0.30060
Cl        17.57000       18.07000       15.94000 0.30060
C         16.80000        7.93000       15.60000 -0.302700
H         16.40000        6.92000       15.74000 0.00070
Cl        17.86000        7.94000       14.19000 0.30060
Cl        15.57000        9.12000       15.31000 0.30060
Cl        17.77000        8.51000       17.06000 0.30060
C         14.08000       14.53000       13.74000 -0.302700
H         12.99000       14.58000       13.79000 0.00070
Cl        14.52000       13.41000       12.44000 0.30060
Cl        14.59000       16.21000       13.61000 0.30060
Cl        14.56000       13.86000       15.38000 0.30060
C         12.79000       17.47000       17.30000 -0.302700
H         12.84000       18.38000       16.70000 0.00070
Cl        12.43000       17.84000       19.00000 0.30060
Cl        11.69000       16.32000       16.56000 0.30060
Cl        14.35000       16.72000       17.06000 0.30060
C         21.50000       11.47000        9.16000 -0.302700
H         22.53000       11.84000        9.14000 0.00070
Cl        21.16000       10.39000        7.76000 0.30060
Cl        21.18000       10.59000       10.69000 0.30060
Cl        20.45000       12.92000        8.98000 0.30060
C         11.59000       11.96000       19.47000 -0.302700
H         11.40000       11.00000       18.97000 0.00070
Cl        10.18000       12.75000       20.25000 0.30060
Cl        12.66000       11.41000       20.73000 0.30060
Cl        12.25000       13.04000       18.22000 0.30060
C         13.73000        2.86000       16.14000 -0.302700
H         12.89000        3.51000       16.40000 0.00070
Cl        12.99000        1.27000       15.62000 0.30060
Cl        14.85000        3.42000       14.89000 0.30060
Cl        14.78000        2.74000       17.53000 0.30060
C         14.03000        8.81000        3.48000 -0.302700
H         13.55000        9.50000        4.18000 0.00070
Cl        12.85000        8.23000        2.29000 0.30060
Cl        15.01000        9.96000        2.46000 0.30060
Cl        14.93000        7.54000        4.33000 0.30060
C          5.80000       17.49000       11.71000 -0.302700
H          5.78000       16.74000       10.91000 0.00070
Cl         7.45000       18.20000       11.66000 0.30060
Cl         4.79000       18.83000       11.30000 0.30060
Cl         5.51000       16.69000       13.26000 0.30060
C         12.22000       20.57000       13.71000 -0.302700
H         12.42000       20.18000       12.71000 0.00070
Cl        13.78000       20.48000       14.49000 0.30060
Cl        11.82000       22.28000       13.47000 0.30060
Cl        11.06000       19.68000       14.63000 0.30060
C          6.94000        4.30000        7.61000 -0.302700
H          7.65000        4.63000        8.38000 0.00070
Cl         6.24000        2.74000        7.93000 0.30060
Cl         5.78000        5.61000        7.53000 0.30060
Cl         7.78000        4.34000        6.01000 0.30060
C          7.23000       13.82000       16.59000 -0.302700
H          7.21000       14.64000       17.31000 0.00070
Cl         6.27000       12.51000       17.24000 0.30060
Cl         6.63000       14.23000       14.96000 0.30060
Cl         8.94000       13.19000       16.45000 0.30060
C          2.81000       13.01000       16.31000 -0.302700
H          3.83000       12.61000       16.35000 0.00070
Cl         1.76000       11.71000       15.63000 0.30060
Cl         2.50000       13.24000       18.10000 0.30060
Cl         2.69000       14.56000       15.40000 0.30060
C          7.46000       18.07000       17.32000 -0.302700
H          7.57000       19.13000       17.54000 0.00070
Cl         7.98000       17.93000       15.68000 0.30060
Cl         8.40000       17.03000       18.42000 0.30060
Cl         5.73000       17.79000       17.51000 0.30060
C          8.57000        3.33000       15.33000 -0.302700
H          8.75000        4.40000       15.22000 0.00070
Cl         9.52000        2.51000       14.01000 0.30060
Cl         9.37000        2.96000       16.89000 0.30060
Cl         6.84000        2.86000       15.42000 0.30060
C          3.17000       15.30000        9.70000 -0.302700
H          2.86000       16.32000        9.91000 0.00070
Cl         4.20000       14.59000       10.95000 0.30060
Cl         1.57000       14.44000        9.67000 0.30060
Cl         3.85000       15.25000        8.01000 0.30060
C         15.79000        4.89000        8.28000 -0.302700
H         16.41000        4.00000        8.42000 0.00070
Cl        15.22000        5.51000        9.84000 0.30060
Cl        16.87000        6.13000        7.45000 0.30060
Cl        14.50000        4.34000        7.23000 0.30060
C         12.62000       12.69000        7.13000 -0.302700
H         11.67000       12.41000        6.68000 0.00070
Cl        13.79000       11.80000        6.15000 0.30060
Cl        12.81000       14.45000        7.00000 0.30060
Cl        12.73000       12.22000        8.82000 0.30060
C         16.55000       15.71000       20.42000 -0.302700
H         17.25000       15.66000       21.26000 0.00070
Cl        17.29000       16.89000       19.25000 0.30060
Cl        16.42000       14.07000       19.77000 0.30060
Cl        14.90000       15.99000       20.86000 0.30060
C          6.02000        7.59000       10.90000 -0.302700
H          5.97000        7.82000       11.97000 0.00070
Cl         6.22000        9.08000        9.91000 0.30060
Cl         7.32000        6.38000       10.60000 0.30060
Cl         4.46000        6.87000       10.55000 0.30060

%Mem = 2GB
%nproc=16
# b3lyp/6-31g* td 

Butadiene tddft 

0 1
C         11.25000       11.09000       12.09000 
H         10.33000       11.57000       12.41000 
C         12.44000       11.03000       12.97000 
H         13.33000       10.50000       12.64000 
C         12.45000       11.56000       14.21000 
H         11.61000       12.00000       14.73000 
H         13.38000       11.52000       14.78000 
C         11.24000       10.53000       10.90000 
H         12.23000       10.21000       10.57000 
H         10.40000       10.49000       10.21000 
  
C          8.88000       13.72000       10.59000 -0.302700
H          9.71000       13.26000       11.13000 0.00070
Cl         9.68000       14.82000        9.33000 0.30060
Cl         7.77000       12.48000        9.82000 0.30060
Cl         7.98000       14.80000       11.74000 0.30060
C          5.12000        6.34000       17.64000 -0.302700
H          4.34000        5.59000       17.53000 0.00070
Cl         4.46000        7.99000       17.54000 0.30060
Cl         5.92000        6.02000       19.26000 0.30060
Cl         6.48000        6.02000       16.61000 0.30060
C         11.89000        7.20000        8.02000 -0.302700
H         12.52000        6.30000        8.03000 0.00070
Cl        13.15000        8.45000        7.80000 0.30060
Cl        10.83000        7.10000        6.58000 0.30060
Cl        10.99000        7.29000        9.53000 0.30060
C         18.51000       13.39000       15.11000 -0.302700
H         19.59000       13.22000       15.17000 0.00070
Cl        17.81000       12.08000       14.05000 0.30060
Cl        17.88000       13.44000       16.83000 0.30060
Cl        18.20000       15.00000       14.36000 0.30060
C          2.21000       10.01000        8.76000 -0.302700
H          2.47000        9.10000        8.23000 0.00070
Cl         1.47000        9.67000       10.35000 0.30060
Cl         3.58000       11.02000        9.01000 0.30060
Cl         1.03000       10.88000        7.70000 0.30060
C          7.92000       13.17000        6.23000 -0.302700
H          8.20000       13.40000        7.26000 0.00070
Cl         9.59000       12.94000        5.77000 0.30060
Cl         6.91000       11.79000        6.00000 0.30060
Cl         7.28000       14.63000        5.34000 0.30060
C          7.71000        8.91000       19.28000 -0.302700
H          7.21000        8.06000       18.79000 0.00070
Cl         6.51000        9.81000       20.17000 0.30060
Cl         8.82000        8.33000       20.56000 0.30060
Cl         8.64000        9.87000       18.07000 0.30060
C          6.60000       10.26000       13.67000 -0.302700
H          7.11000       10.79000       14.47000 0.00070
Cl         7.79000        9.44000       12.63000 0.30060
Cl         5.54000        9.05000       14.42000 0.30060
Cl         5.73000       11.41000       12.63000 0.30060
C         11.89000        2.38000       10.08000 -0.302700
H         11.38000        1.56000       10.60000 0.00070
Cl        13.58000        1.91000        9.57000 0.30060
Cl        10.98000        2.81000        8.66000 0.30060
Cl        12.02000        3.75000       11.15000 0.30060
C         17.16000       15.27000       10.87000 -0.302700
H         16.65000       15.32000       11.83000 0.00070
Cl        17.74000       13.61000       10.65000 0.30060
Cl        15.79000       15.70000        9.80000 0.30060
Cl        18.38000       16.60000       10.77000 0.30060
C         17.20000        9.54000       10.63000 -0.302700
H         18.03000       10.16000       10.98000 0.00070
Cl        17.87000        7.93000       10.87000 0.30060
Cl        15.74000        9.86000       11.62000 0.30060
Cl        16.82000        9.77000        8.92000 0.30060
C          7.59000       19.88000        7.24000 -0.302700
H          7.45000       20.32000        8.23000 0.00070
Cl         8.29000       21.05000        6.08000 0.30060
Cl         8.73000       18.56000        7.51000 0.30060
Cl         6.02000       19.22000        6.60000 0.30060
C         12.83000        7.11000       18.36000 -0.302700
H         12.28000        7.45000       17.48000 0.00070
Cl        11.70000        5.98000       19.19000 0.30060
Cl        14.26000        6.42000       17.60000 0.30060
Cl        13.13000        8.50000       19.42000 0.30060
C         11.61000        7.33000       13.67000 -0.302700
H         11.07000        7.92000       12.92000 0.00070
Cl        11.64000        8.40000       15.08000 0.30060
Cl        10.62000        5.83000       13.81000 0.30060
Cl        13.21000        6.96000       13.11000 0.30060
C         12.93000       18.16000       10.04000 -0.302700
H         13.29000       17.88000        9.05000 0.00070
Cl        11.49000       19.21000        9.79000 0.30060
Cl        12.23000       16.79000       10.91000 0.30060
Cl        14.10000       18.98000       11.10000 0.30060
C         18.61000       19.00000       14.88000 -0.302700
H         18.55000       18.45000       13.93000 0.00070
Cl        20.22000       19.20000       15.53000 0.30060
Cl        17.80000       20.52000       14.42000 0.30060
Cl        17.57000       18.07000       15.94000 0.30060
C         16.80000        7.93000       15.60000 -0.302700
H         16.40000        6.92000       15.74000 0.00070
Cl        17.86000        7.94000       14.19000 0.30060
Cl        15.57000        9.12000       15.31000 0.30060
Cl        17.77000        8.51000       17.06000 0.30060
C         14.08000       14.53000       13.74000 -0.302700
H         12.99000       14.58000       13.79000 0.00070
Cl        14.52000       13.41000       12.44000 0.30060
Cl        14.59000       16.21000       13.61000 0.30060
Cl        14.56000       13.86000       15.38000 0.30060
C         12.79000       17.47000       17.30000 -0.302700
H         12.84000       18.38000       16.70000 0.00070
Cl        12.43000       17.84000       19.00000 0.30060
Cl        11.69000       16.32000       16.56000 0.30060
Cl        14.35000       16.72000       17.06000 0.30060
C         21.50000       11.47000        9.16000 -0.302700
H         22.53000       11.84000        9.14000 0.00070
Cl        21.16000       10.39000        7.76000 0.30060
Cl        21.18000       10.59000       10.69000 0.30060
Cl        20.45000       12.92000        8.98000 0.30060
C         11.59000       11.96000       19.47000 -0.302700
H         11.40000       11.00000       18.97000 0.00070
Cl        10.18000       12.75000       20.25000 0.30060
Cl        12.66000       11.41000       20.73000 0.30060
Cl        12.25000       13.04000       18.22000 0.30060
C         13.73000        2.86000       16.14000 -0.302700
H         12.89000        3.51000       16.40000 0.00070
Cl        12.99000        1.27000       15.62000 0.30060
Cl        14.85000        3.42000       14.89000 0.30060
Cl        14.78000        2.74000       17.53000 0.30060
C         14.03000        8.81000        3.48000 -0.302700
H         13.55000        9.50000        4.18000 0.00070
Cl        12.85000        8.23000        2.29000 0.30060
Cl        15.01000        9.96000        2.46000 0.30060
Cl        14.93000        7.54000        4.33000 0.30060
C          5.80000       17.49000       11.71000 -0.302700
H          5.78000       16.74000       10.91000 0.00070
Cl         7.45000       18.20000       11.66000 0.30060
Cl         4.79000       18.83000       11.30000 0.30060
Cl         5.51000       16.69000       13.26000 0.30060
C         12.22000       20.57000       13.71000 -0.302700
H         12.42000       20.18000       12.71000 0.00070
Cl        13.78000       20.48000       14.49000 0.30060
Cl        11.82000       22.28000       13.47000 0.30060
Cl        11.06000       19.68000       14.63000 0.30060
C          6.94000        4.30000        7.61000 -0.302700
H          7.65000        4.63000        8.38000 0.00070
Cl         6.24000        2.74000        7.93000 0.30060
Cl         5.78000        5.61000        7.53000 0.30060
Cl         7.78000        4.34000        6.01000 0.30060
C          7.23000       13.82000       16.59000 -0.302700
H          7.21000       14.64000       17.31000 0.00070
Cl         6.27000       12.51000       17.24000 0.30060
Cl         6.63000       14.23000       14.96000 0.30060
Cl         8.94000       13.19000       16.45000 0.30060
C          2.81000       13.01000       16.31000 -0.302700
H          3.83000       12.61000       16.35000 0.00070
Cl         1.76000       11.71000       15.63000 0.30060
Cl         2.50000       13.24000       18.10000 0.30060
Cl         2.69000       14.56000       15.40000 0.30060
C          7.46000       18.07000       17.32000 -0.302700
H          7.57000       19.13000       17.54000 0.00070
Cl         7.98000       17.93000       15.68000 0.30060
Cl         8.40000       17.03000       18.42000 0.30060
Cl         5.73000       17.79000       17.51000 0.30060
C          8.57000        3.33000       15.33000 -0.302700
H          8.75000        4.40000       15.22000 0.00070
Cl         9.52000        2.51000       14.01000 0.30060
Cl         9.37000        2.96000       16.89000 0.30060
Cl         6.84000        2.86000       15.42000 0.30060
C          3.17000       15.30000        9.70000 -0.302700
H          2.86000       16.32000        9.91000 0.00070
Cl         4.20000       14.59000       10.95000 0.30060
Cl         1.57000       14.44000        9.67000 0.30060
Cl         3.85000       15.25000        8.01000 0.30060
C         15.79000        4.89000        8.28000 -0.302700
H         16.41000        4.00000        8.42000 0.00070
Cl        15.22000        5.51000        9.84000 0.30060
Cl        16.87000        6.13000        7.45000 0.30060
Cl        14.50000        4.34000        7.23000 0.30060
C         12.62000       12.69000        7.13000 -0.302700
H         11.67000       12.41000        6.68000 0.00070
Cl        13.79000       11.80000        6.15000 0.30060
Cl        12.81000       14.45000        7.00000 0.30060
Cl        12.73000       12.22000        8.82000 0.30060
C         16.55000       15.71000       20.42000 -0.302700
H         17.25000       15.66000       21.26000 0.00070
Cl        17.29000       16.89000       19.25000 0.30060
Cl        16.42000       14.07000       19.77000 0.30060
Cl        14.90000       15.99000       20.86000 0.30060
C          6.02000        7.59000       10.90000 -0.302700
H          5.97000        7.82000       11.97000 0.00070
Cl         6.22000        9.08000        9.91000 0.30060
Cl         7.32000        6.38000       10.60000 0.30060
Cl         4.46000        6.87000       10.55000 0.30060

