%Mem = 2GB
%nproc=16
# b3lyp/6-31g* td 

Butadiene tddft 

0 1
C         12.67000       12.19000       10.74000 
H         12.76000       12.88000        9.90000 
C         11.68000       11.21000       10.63000 
H         11.70000       10.54000       11.49000 
C         10.97000       10.89000        9.55000 
H         11.00000       11.53000        8.67000 
H         10.26000       10.06000        9.56000 
C         13.65000       12.10000       11.65000 
H         13.67000       11.25000       12.34000 
H         14.55000       12.70000       11.67000 
  
C         16.10000       17.54000        6.08000 -0.302700
H         15.81000       16.59000        6.52000 0.00070
Cl        17.75000       17.84000        6.61000 0.30060
Cl        16.00000       17.30000        4.36000 0.30060
Cl        14.77000       18.55000        6.66000 0.30060
C          7.69000        9.03000       19.99000 -0.302700
H          7.15000        8.60000       19.15000 0.00070
Cl         6.56000       10.26000       20.59000 0.30060
Cl         7.87000        7.81000       21.31000 0.30060
Cl         9.25000        9.65000       19.37000 0.30060
C         11.27000       12.14000        5.89000 -0.302700
H         11.44000       11.11000        6.22000 0.00070
Cl         9.76000       12.77000        6.50000 0.30060
Cl        12.68000       13.11000        6.38000 0.30060
Cl        11.11000       12.16000        4.08000 0.30060
C         15.53000       15.38000       15.79000 -0.302700
H         16.43000       15.67000       15.25000 0.00070
Cl        16.21000       15.22000       17.45000 0.30060
Cl        14.38000       16.71000       15.72000 0.30060
Cl        14.91000       13.97000       14.98000 0.30060
C          5.31000       12.13000        7.26000 -0.302700
H          5.76000       11.82000        8.20000 0.00070
Cl         3.52000       12.00000        7.52000 0.30060
Cl         5.79000       13.89000        7.05000 0.30060
Cl         6.00000       11.20000        5.88000 0.30060
C          7.51000        2.39000       13.46000 -0.302700
H          6.67000        2.16000       14.11000 0.00070
Cl         9.06000        2.57000       14.31000 0.30060
Cl         7.53000        1.05000       12.27000 0.30060
Cl         7.02000        3.88000       12.58000 0.30060
C          4.50000        6.81000       17.00000 -0.302700
H          3.81000        5.97000       17.14000 0.00070
Cl         5.11000        6.51000       15.34000 0.30060
Cl         3.58000        8.38000       17.13000 0.30060
Cl         5.88000        6.74000       18.13000 0.30060
C          7.88000       16.61000        6.85000 -0.302700
H          7.80000       15.85000        6.07000 0.00070
Cl         8.65000       18.01000        6.09000 0.30060
Cl         6.42000       16.93000        7.78000 0.30060
Cl         9.15000       15.85000        7.87000 0.30060
C         18.23000        7.69000        5.01000 -0.302700
H         17.26000        7.56000        4.52000 0.00070
Cl        19.45000        7.36000        3.82000 0.30060
Cl        18.38000        9.35000        5.72000 0.30060
Cl        18.21000        6.58000        6.44000 0.30060
C          7.20000       13.79000       13.91000 -0.302700
H          6.31000       14.29000       13.53000 0.00070
Cl         7.73000       14.62000       15.43000 0.30060
Cl         6.78000       12.05000       14.22000 0.30060
Cl         8.46000       13.92000       12.62000 0.30060
C         13.01000        5.11000       13.33000 -0.302700
H         13.76000        5.71000       13.84000 0.00070
Cl        12.18000        4.24000       14.59000 0.30060
Cl        12.00000        6.30000       12.40000 0.30060
Cl        13.85000        3.93000       12.23000 0.30060
C         17.65000       16.79000       11.90000 -0.302700
H         17.98000       17.57000       11.20000 0.00070
Cl        18.83000       15.58000       12.34000 0.30060
Cl        16.93000       17.59000       13.33000 0.30060
Cl        16.37000       15.86000       11.21000 0.30060
C         10.59000        2.99000       10.48000 -0.302700
H         10.38000        3.37000       11.49000 0.00070
Cl        11.64000        4.16000        9.68000 0.30060
Cl        11.41000        1.48000       10.92000 0.30060
Cl         9.01000        2.78000        9.54000 0.30060
C         18.72000       11.61000       12.46000 -0.302700
H         18.39000       12.58000       12.08000 0.00070
Cl        19.25000       11.90000       14.19000 0.30060
Cl        17.32000       10.59000       12.41000 0.30060
Cl        20.04000       10.88000       11.48000 0.30060
C         11.24000       19.53000        9.09000 -0.302700
H         11.39000       20.43000        8.49000 0.00070
Cl        11.62000       18.09000        8.07000 0.30060
Cl        12.17000       19.71000       10.59000 0.30060
Cl         9.48000       19.58000        9.42000 0.30060
C         13.30000        7.23000       20.39000 -0.302700
H         13.00000        7.34000       21.43000 0.00070
Cl        12.04000        6.23000       19.66000 0.30060
Cl        13.38000        8.80000       19.45000 0.30060
Cl        14.87000        6.42000       20.41000 0.30060
C         12.87000        1.44000        7.31000 -0.302700
H         12.64000        2.10000        8.15000 0.00070
Cl        13.62000        0.08000        8.10000 0.30060
Cl        11.37000        0.98000        6.55000 0.30060
Cl        13.95000        2.41000        6.29000 0.30060
C         10.97000       11.28000       15.33000 -0.302700
H         10.22000       11.51000       16.10000 0.00070
Cl        12.00000        9.91000       15.86000 0.30060
Cl        10.09000       10.67000       13.90000 0.30060
Cl        11.85000       12.75000       14.87000 0.30060
C         14.68000       22.27000       12.12000 -0.302700
H         14.64000       21.96000       11.08000 0.00070
Cl        13.16000       23.01000       12.70000 0.30060
Cl        15.06000       20.71000       12.82000 0.30060
Cl        15.98000       23.48000       12.29000 0.30060
C         15.43000        8.92000       15.69000 -0.302700
H         14.95000        8.35000       16.50000 0.00070
Cl        14.54000        8.69000       14.15000 0.30060
Cl        15.47000       10.61000       16.20000 0.30060
Cl        17.07000        8.14000       15.55000 0.30060
C         11.39000       16.93000       14.23000 -0.302700
H         11.32000       16.30000       15.13000 0.00070
Cl         9.79000       16.94000       13.49000 0.30060
Cl        11.78000       18.58000       14.64000 0.30060
Cl        12.46000       16.17000       13.11000 0.30060
C         16.62000        2.87000       16.24000 -0.302700
H         16.04000        2.93000       17.16000 0.00070
Cl        18.28000        3.39000       16.60000 0.30060
Cl        16.57000        1.18000       15.66000 0.30060
Cl        15.85000        4.08000       15.16000 0.30060
C         11.81000       16.05000        2.93000 -0.302700
H         12.12000       16.91000        2.35000 0.00070
Cl        12.86000       14.69000        2.50000 0.30060
Cl        11.84000       16.50000        4.65000 0.30060
Cl        10.20000       15.70000        2.13000 0.30060
C          7.11000        5.88000        4.61000 -0.302700
H          6.42000        6.68000        4.88000 0.00070
Cl         7.16000        4.56000        5.83000 0.30060
Cl         6.45000        5.21000        3.05000 0.30060
Cl         8.72000        6.74000        4.55000 0.30060
C          9.82000       16.48000       18.53000 -0.302700
H          9.61000       16.71000       19.57000 0.00070
Cl         9.74000       14.72000       18.29000 0.30060
Cl         8.51000       17.33000       17.61000 0.30060
Cl        11.45000       17.11000       18.24000 0.30060
C          9.13000        7.60000       15.79000 -0.302700
H         10.06000        8.04000       15.43000 0.00070
Cl         8.63000        6.32000       14.65000 0.30060
Cl         9.56000        6.83000       17.37000 0.30060
Cl         7.86000        8.80000       16.07000 0.30060
C          5.16000       18.20000       12.57000 -0.302700
H          5.00000       19.28000       12.49000 0.00070
Cl         6.02000       18.15000       14.14000 0.30060
Cl         3.54000       17.36000       12.61000 0.30060
Cl         6.23000       17.41000       11.46000 0.30060
C         13.94000        7.55000        9.24000 -0.302700
H         12.93000        7.40000        9.63000 0.00070
Cl        14.16000        6.89000        7.61000 0.30060
Cl        14.24000        9.30000        9.11000 0.30060
Cl        15.12000        6.68000       10.21000 0.30060
C         17.52000       12.82000        7.72000 -0.302700
H         18.11000       11.90000        7.83000 0.00070
Cl        18.65000       14.19000        7.90000 0.30060
Cl        17.04000       13.00000        6.01000 0.30060
Cl        16.12000       12.86000        8.87000 0.30060
C         14.83000       10.27000        3.53000 -0.302700
H         13.87000        9.94000        3.13000 0.00070
Cl        16.25000        9.36000        2.91000 0.30060
Cl        15.19000       11.95000        3.07000 0.30060
Cl        14.70000       10.34000        5.27000 0.30060
C          6.47000        8.90000       11.53000 -0.302700
H          6.79000        9.35000       12.48000 0.00070
Cl         6.33000       10.15000       10.32000 0.30060
Cl         7.88000        7.93000       11.06000 0.30060
Cl         4.98000        7.96000       11.69000 0.30060

%Mem = 2GB
%nproc=16
# b3lyp/6-31g* td 

Butadiene tddft 

0 1
C         12.67000       12.19000       10.74000 
H         12.76000       12.88000        9.90000 
C         11.68000       11.21000       10.63000 
H         11.70000       10.54000       11.49000 
C         10.97000       10.89000        9.55000 
H         11.00000       11.53000        8.67000 
H         10.26000       10.06000        9.56000 
C         13.65000       12.10000       11.65000 
H         13.67000       11.25000       12.34000 
H         14.55000       12.70000       11.67000 
  
C         16.10000       17.54000        6.08000 -0.302700
H         15.81000       16.59000        6.52000 0.00070
Cl        17.75000       17.84000        6.61000 0.30060
Cl        16.00000       17.30000        4.36000 0.30060
Cl        14.77000       18.55000        6.66000 0.30060
C          7.69000        9.03000       19.99000 -0.302700
H          7.15000        8.60000       19.15000 0.00070
Cl         6.56000       10.26000       20.59000 0.30060
Cl         7.87000        7.81000       21.31000 0.30060
Cl         9.25000        9.65000       19.37000 0.30060
C         11.27000       12.14000        5.89000 -0.302700
H         11.44000       11.11000        6.22000 0.00070
Cl         9.76000       12.77000        6.50000 0.30060
Cl        12.68000       13.11000        6.38000 0.30060
Cl        11.11000       12.16000        4.08000 0.30060
C         15.53000       15.38000       15.79000 -0.302700
H         16.43000       15.67000       15.25000 0.00070
Cl        16.21000       15.22000       17.45000 0.30060
Cl        14.38000       16.71000       15.72000 0.30060
Cl        14.91000       13.97000       14.98000 0.30060
C          5.31000       12.13000        7.26000 -0.302700
H          5.76000       11.82000        8.20000 0.00070
Cl         3.52000       12.00000        7.52000 0.30060
Cl         5.79000       13.89000        7.05000 0.30060
Cl         6.00000       11.20000        5.88000 0.30060
C          7.51000        2.39000       13.46000 -0.302700
H          6.67000        2.16000       14.11000 0.00070
Cl         9.06000        2.57000       14.31000 0.30060
Cl         7.53000        1.05000       12.27000 0.30060
Cl         7.02000        3.88000       12.58000 0.30060
C          4.50000        6.81000       17.00000 -0.302700
H          3.81000        5.97000       17.14000 0.00070
Cl         5.11000        6.51000       15.34000 0.30060
Cl         3.58000        8.38000       17.13000 0.30060
Cl         5.88000        6.74000       18.13000 0.30060
C          7.88000       16.61000        6.85000 -0.302700
H          7.80000       15.85000        6.07000 0.00070
Cl         8.65000       18.01000        6.09000 0.30060
Cl         6.42000       16.93000        7.78000 0.30060
Cl         9.15000       15.85000        7.87000 0.30060
C         18.23000        7.69000        5.01000 -0.302700
H         17.26000        7.56000        4.52000 0.00070
Cl        19.45000        7.36000        3.82000 0.30060
Cl        18.38000        9.35000        5.72000 0.30060
Cl        18.21000        6.58000        6.44000 0.30060
C          7.20000       13.79000       13.91000 -0.302700
H          6.31000       14.29000       13.53000 0.00070
Cl         7.73000       14.62000       15.43000 0.30060
Cl         6.78000       12.05000       14.22000 0.30060
Cl         8.46000       13.92000       12.62000 0.30060
C         13.01000        5.11000       13.33000 -0.302700
H         13.76000        5.71000       13.84000 0.00070
Cl        12.18000        4.24000       14.59000 0.30060
Cl        12.00000        6.30000       12.40000 0.30060
Cl        13.85000        3.93000       12.23000 0.30060
C         17.65000       16.79000       11.90000 -0.302700
H         17.98000       17.57000       11.20000 0.00070
Cl        18.83000       15.58000       12.34000 0.30060
Cl        16.93000       17.59000       13.33000 0.30060
Cl        16.37000       15.86000       11.21000 0.30060
C         10.59000        2.99000       10.48000 -0.302700
H         10.38000        3.37000       11.49000 0.00070
Cl        11.64000        4.16000        9.68000 0.30060
Cl        11.41000        1.48000       10.92000 0.30060
Cl         9.01000        2.78000        9.54000 0.30060
C         18.72000       11.61000       12.46000 -0.302700
H         18.39000       12.58000       12.08000 0.00070
Cl        19.25000       11.90000       14.19000 0.30060
Cl        17.32000       10.59000       12.41000 0.30060
Cl        20.04000       10.88000       11.48000 0.30060
C         11.24000       19.53000        9.09000 -0.302700
H         11.39000       20.43000        8.49000 0.00070
Cl        11.62000       18.09000        8.07000 0.30060
Cl        12.17000       19.71000       10.59000 0.30060
Cl         9.48000       19.58000        9.42000 0.30060
C         13.30000        7.23000       20.39000 -0.302700
H         13.00000        7.34000       21.43000 0.00070
Cl        12.04000        6.23000       19.66000 0.30060
Cl        13.38000        8.80000       19.45000 0.30060
Cl        14.87000        6.42000       20.41000 0.30060
C         12.87000        1.44000        7.31000 -0.302700
H         12.64000        2.10000        8.15000 0.00070
Cl        13.62000        0.08000        8.10000 0.30060
Cl        11.37000        0.98000        6.55000 0.30060
Cl        13.95000        2.41000        6.29000 0.30060
C         10.97000       11.28000       15.33000 -0.302700
H         10.22000       11.51000       16.10000 0.00070
Cl        12.00000        9.91000       15.86000 0.30060
Cl        10.09000       10.67000       13.90000 0.30060
Cl        11.85000       12.75000       14.87000 0.30060
C         14.68000       22.27000       12.12000 -0.302700
H         14.64000       21.96000       11.08000 0.00070
Cl        13.16000       23.01000       12.70000 0.30060
Cl        15.06000       20.71000       12.82000 0.30060
Cl        15.98000       23.48000       12.29000 0.30060
C         15.43000        8.92000       15.69000 -0.302700
H         14.95000        8.35000       16.50000 0.00070
Cl        14.54000        8.69000       14.15000 0.30060
Cl        15.47000       10.61000       16.20000 0.30060
Cl        17.07000        8.14000       15.55000 0.30060
C         11.39000       16.93000       14.23000 -0.302700
H         11.32000       16.30000       15.13000 0.00070
Cl         9.79000       16.94000       13.49000 0.30060
Cl        11.78000       18.58000       14.64000 0.30060
Cl        12.46000       16.17000       13.11000 0.30060
C         16.62000        2.87000       16.24000 -0.302700
H         16.04000        2.93000       17.16000 0.00070
Cl        18.28000        3.39000       16.60000 0.30060
Cl        16.57000        1.18000       15.66000 0.30060
Cl        15.85000        4.08000       15.16000 0.30060
C         11.81000       16.05000        2.93000 -0.302700
H         12.12000       16.91000        2.35000 0.00070
Cl        12.86000       14.69000        2.50000 0.30060
Cl        11.84000       16.50000        4.65000 0.30060
Cl        10.20000       15.70000        2.13000 0.30060
C          7.11000        5.88000        4.61000 -0.302700
H          6.42000        6.68000        4.88000 0.00070
Cl         7.16000        4.56000        5.83000 0.30060
Cl         6.45000        5.21000        3.05000 0.30060
Cl         8.72000        6.74000        4.55000 0.30060
C          9.82000       16.48000       18.53000 -0.302700
H          9.61000       16.71000       19.57000 0.00070
Cl         9.74000       14.72000       18.29000 0.30060
Cl         8.51000       17.33000       17.61000 0.30060
Cl        11.45000       17.11000       18.24000 0.30060
C          9.13000        7.60000       15.79000 -0.302700
H         10.06000        8.04000       15.43000 0.00070
Cl         8.63000        6.32000       14.65000 0.30060
Cl         9.56000        6.83000       17.37000 0.30060
Cl         7.86000        8.80000       16.07000 0.30060
C          5.16000       18.20000       12.57000 -0.302700
H          5.00000       19.28000       12.49000 0.00070
Cl         6.02000       18.15000       14.14000 0.30060
Cl         3.54000       17.36000       12.61000 0.30060
Cl         6.23000       17.41000       11.46000 0.30060
C         13.94000        7.55000        9.24000 -0.302700
H         12.93000        7.40000        9.63000 0.00070
Cl        14.16000        6.89000        7.61000 0.30060
Cl        14.24000        9.30000        9.11000 0.30060
Cl        15.12000        6.68000       10.21000 0.30060
C         17.52000       12.82000        7.72000 -0.302700
H         18.11000       11.90000        7.83000 0.00070
Cl        18.65000       14.19000        7.90000 0.30060
Cl        17.04000       13.00000        6.01000 0.30060
Cl        16.12000       12.86000        8.87000 0.30060
C         14.83000       10.27000        3.53000 -0.302700
H         13.87000        9.94000        3.13000 0.00070
Cl        16.25000        9.36000        2.91000 0.30060
Cl        15.19000       11.95000        3.07000 0.30060
Cl        14.70000       10.34000        5.27000 0.30060
C          6.47000        8.90000       11.53000 -0.302700
H          6.79000        9.35000       12.48000 0.00070
Cl         6.33000       10.15000       10.32000 0.30060
Cl         7.88000        7.93000       11.06000 0.30060
Cl         4.98000        7.96000       11.69000 0.30060

