%Mem = 2GB
%nproc=16
# b3lyp/6-31g* td 

Butadiene tddft 

0 1
C         11.77000       10.76000       12.10000 
H         12.80000       10.61000       12.45000 
C         10.85000       11.24000       13.08000 
H          9.84000       11.53000       12.78000 
C         11.09000       11.34000       14.39000 
H         11.98000       10.96000       14.89000 
H         10.32000       11.77000       15.02000 
C         11.43000       10.45000       10.88000 
H         10.39000       10.48000       10.57000 
H         12.13000       10.21000       10.08000 
  
C          3.13000       14.19000       12.58000 -0.302700
H          3.55000       13.20000       12.38000 0.00070
Cl         4.04000       14.90000       13.91000 0.30060
Cl         3.14000       15.36000       11.19000 0.30060
Cl         1.51000       13.76000       13.12000 0.30060
C         21.02000       12.24000       12.46000 -0.302700
H         22.04000       11.86000       12.40000 0.00070
Cl        20.13000       11.33000       13.78000 0.30060
Cl        21.04000       13.95000       12.91000 0.30060
Cl        20.13000       12.05000       10.86000 0.30060
C         14.61000       20.41000       18.34000 -0.302700
H         13.82000       21.17000       18.34000 0.00070
Cl        16.08000       21.03000       17.67000 0.30060
Cl        15.06000       19.93000       19.97000 0.30060
Cl        13.99000       19.00000       17.40000 0.30060
C         10.48000        6.84000       20.59000 -0.302700
H         10.49000        6.79000       21.68000 0.00070
Cl         8.89000        6.38000       20.00000 0.30060
Cl        10.98000        8.51000       20.20000 0.30060
Cl        11.65000        5.57000       20.08000 0.30060
C          4.36000        9.69000        6.47000 -0.302700
H          4.10000        8.64000        6.63000 0.00070
Cl         5.80000       10.09000        7.33000 0.30060
Cl         4.74000        9.88000        4.74000 0.30060
Cl         3.01000       10.84000        6.88000 0.30060
C          8.63000        5.84000       12.98000 -0.302700
H          9.64000        5.61000       13.33000 0.00070
Cl         7.36000        5.13000       14.06000 0.30060
Cl         8.47000        7.55000       12.69000 0.30060
Cl         8.41000        5.04000       11.38000 0.30060
C          3.14000        6.86000       13.90000 -0.302700
H          3.83000        6.13000       14.33000 0.00070
Cl         3.68000        8.55000       14.18000 0.30060
Cl         3.15000        6.53000       12.17000 0.30060
Cl         1.60000        6.62000       14.74000 0.30060
C         11.31000        3.29000       15.79000 -0.302700
H         12.31000        3.72000       15.75000 0.00070
Cl        10.59000        3.30000       14.22000 0.30060
Cl        11.50000        1.64000       16.34000 0.30060
Cl        10.40000        4.22000       17.00000 0.30060
C         17.44000        4.35000        8.11000 -0.302700
H         17.03000        3.38000        7.81000 0.00070
Cl        16.82000        4.55000        9.81000 0.30060
Cl        19.28000        4.48000        8.15000 0.30060
Cl        16.86000        5.62000        7.07000 0.30060
C         17.81000       15.62000       14.25000 -0.302700
H         16.90000       15.99000       14.74000 0.00070
Cl        17.65000       15.44000       12.47000 0.30060
Cl        19.02000       16.84000       14.60000 0.30060
Cl        18.42000       14.14000       15.07000 0.30060
C          7.77000        8.07000       16.65000 -0.302700
H          7.33000        7.10000       16.90000 0.00070
Cl         6.80000        8.73000       15.28000 0.30060
Cl         7.72000        9.25000       17.91000 0.30060
Cl         9.44000        7.64000       16.16000 0.30060
C          8.69000       12.67000        6.08000 -0.302700
H          7.65000       12.61000        5.76000 0.00070
Cl         9.20000       14.37000        5.79000 0.30060
Cl         8.70000       12.31000        7.83000 0.30060
Cl         9.64000       11.44000        5.13000 0.30060
C         18.83000        8.45000        9.00000 -0.302700
H         18.35000        7.53000        8.67000 0.00070
Cl        20.61000        8.29000        8.93000 0.30060
Cl        18.39000        9.84000        7.98000 0.30060
Cl        18.27000        8.70000       10.68000 0.30060
C         13.23000       19.97000        7.91000 -0.302700
H         12.29000       19.63000        8.35000 0.00070
Cl        13.06000       19.99000        6.16000 0.30060
Cl        13.68000       21.51000        8.61000 0.30060
Cl        14.50000       18.76000        8.51000 0.30060
C          7.15000       15.26000       10.87000 -0.302700
H          6.08000       15.04000       10.90000 0.00070
Cl         7.28000       16.85000       11.74000 0.30060
Cl         8.21000       14.02000       11.70000 0.30060
Cl         7.56000       15.23000        9.21000 0.30060
C         12.21000       15.40000        9.34000 -0.302700
H         12.37000       16.03000       10.21000 0.00070
Cl        13.82000       14.55000        9.01000 0.30060
Cl        11.06000       14.15000        9.88000 0.30060
Cl        11.64000       16.46000        7.98000 0.30060
C         10.92000       19.11000       11.69000 -0.302700
H         10.92000       20.18000       11.87000 0.00070
Cl        10.18000       18.69000       10.16000 0.30060
Cl        12.53000       18.44000       11.36000 0.30060
Cl        10.13000       18.43000       13.11000 0.30060
C         12.81000        8.08000        1.87000 -0.302700
H         13.78000        8.05000        1.38000 0.00070
Cl        11.48000        8.32000        0.71000 0.30060
Cl        12.71000        6.58000        2.80000 0.30060
Cl        13.08000        9.57000        2.89000 0.30060
C         12.63000       14.96000        4.72000 -0.302700
H         11.89000       14.54000        5.40000 0.00070
Cl        11.74000       16.13000        3.76000 0.30060
Cl        13.90000       15.88000        5.55000 0.30060
Cl        13.19000       13.72000        3.57000 0.30060
C          3.70000        2.83000       11.95000 -0.302700
H          3.89000        1.81000       11.61000 0.00070
Cl         2.04000        3.24000       11.44000 0.30060
Cl         3.83000        2.83000       13.77000 0.30060
Cl         4.86000        3.89000       11.21000 0.30060
C         13.94000       11.15000        7.09000 -0.302700
H         13.70000       12.21000        7.15000 0.00070
Cl        15.18000       10.91000        5.80000 0.30060
Cl        14.69000       10.80000        8.67000 0.30060
Cl        12.45000       10.24000        6.69000 0.30060
C          4.58000       11.17000       17.13000 -0.302700
H          5.06000       10.25000       16.80000 0.00070
Cl         5.28000       12.46000       16.20000 0.30060
Cl         2.88000       11.05000       16.64000 0.30060
Cl         4.90000       11.35000       18.91000 0.30060
C         17.91000       15.84000        7.06000 -0.302700
H         19.00000       15.92000        7.12000 0.00070
Cl        17.47000       14.01000        7.15000 0.30060
Cl        17.28000       16.70000        8.45000 0.30060
Cl        17.43000       16.72000        5.58000 0.30060
C         15.76000       19.50000       12.65000 -0.302700
H         14.96000       20.02000       12.11000 0.00070
Cl        17.29000       20.02000       11.83000 0.30060
Cl        15.82000       20.07000       14.32000 0.30060
Cl        15.50000       17.72000       12.57000 0.30060
C          7.46000       20.45000       14.31000 -0.302700
H          8.06000       20.21000       13.43000 0.00070
Cl         6.31000       18.92000       14.37000 0.30060
Cl         8.45000       20.57000       15.76000 0.30060
Cl         6.55000       21.91000       13.76000 0.30060
C         17.24000        3.94000       14.86000 -0.302700
H         17.88000        4.55000       15.51000 0.00070
Cl        17.98000        2.39000       14.54000 0.30060
Cl        15.73000        3.74000       15.72000 0.30060
Cl        17.19000        5.00000       13.43000 0.30060
C          5.57000       10.97000       10.65000 -0.302700
H          6.54000       10.65000       10.26000 0.00070
Cl         4.98000       12.33000        9.68000 0.30060
Cl         4.47000        9.54000       10.56000 0.30060
Cl         5.70000       11.63000       12.24000 0.30060
C         12.04000       18.42000       21.31000 -0.302700
H         13.09000       18.22000       21.49000 0.00070
Cl        11.07000       18.03000       22.84000 0.30060
Cl        11.65000       20.05000       20.76000 0.30060
Cl        11.66000       17.23000       20.02000 0.30060
C         12.51000        5.99000        8.78000 -0.302700
H         11.77000        6.79000        8.85000 0.00070
Cl        12.25000        4.95000       10.17000 0.30060
Cl        12.35000        5.11000        7.22000 0.30060
Cl        14.04000        6.88000        8.88000 0.30060
C          7.55000       16.10000       17.05000 -0.302700
H          6.77000       16.78000       16.69000 0.00070
Cl         6.87000       15.25000       18.52000 0.30060
Cl         8.01000       15.13000       15.70000 0.30060
Cl         8.78000       17.27000       17.60000 0.30060
C          3.26000       14.50000        5.19000 -0.302700
H          3.23000       15.52000        4.79000 0.00070
Cl         4.01000       13.53000        3.91000 0.30060
Cl         4.26000       14.41000        6.68000 0.30060
Cl         1.58000       13.99000        5.46000 0.30060
C          8.83000        7.65000        7.21000 -0.302700
H          8.01000        8.17000        6.72000 0.00070
Cl         8.55000        5.94000        7.58000 0.30060
Cl        10.13000        7.73000        5.99000 0.30060
Cl         9.27000        8.38000        8.80000 0.30060
C         12.21000       11.82000       18.99000 -0.302700
H         11.25000       11.46000       19.36000 0.00070
Cl        12.04000       13.29000       18.02000 0.30060
Cl        13.30000       12.24000       20.34000 0.30060
Cl        12.91000       10.52000       17.94000 0.30060
C          8.04000       12.95000       21.06000 -0.302700
H          7.65000       13.54000       20.23000 0.00070
Cl         8.46000       11.29000       20.70000 0.30060
Cl         9.43000       13.96000       21.68000 0.30060
Cl         6.77000       13.14000       22.24000 0.30060
C         16.94000       11.92000       17.87000 -0.302700
H         16.70000       11.60000       18.89000 0.00070
Cl        16.28000       13.51000       17.49000 0.30060
Cl        18.68000       12.02000       17.90000 0.30060
Cl        16.31000       10.73000       16.69000 0.30060
C         13.02000       14.30000       13.36000 -0.302700
H         12.68000       13.30000       13.62000 0.00070
Cl        11.62000       15.28000       12.99000 0.30060
Cl        13.86000       14.95000       14.79000 0.30060
Cl        14.16000       14.11000       12.01000 0.30060
C          5.49000        4.07000       18.09000 -0.302700
H          5.16000        3.03000       18.14000 0.00070
Cl         5.32000        4.72000       19.73000 0.30060
Cl         7.17000        4.15000       17.52000 0.30060
Cl         4.38000        4.90000       16.92000 0.30060

%Mem = 2GB
%nproc=16
# b3lyp/6-31g* td 

Butadiene tddft 

0 1
C         11.77000       10.76000       12.10000 
H         12.80000       10.61000       12.45000 
C         10.85000       11.24000       13.08000 
H          9.84000       11.53000       12.78000 
C         11.09000       11.34000       14.39000 
H         11.98000       10.96000       14.89000 
H         10.32000       11.77000       15.02000 
C         11.43000       10.45000       10.88000 
H         10.39000       10.48000       10.57000 
H         12.13000       10.21000       10.08000 
  
C          3.13000       14.19000       12.58000 -0.302700
H          3.55000       13.20000       12.38000 0.00070
Cl         4.04000       14.90000       13.91000 0.30060
Cl         3.14000       15.36000       11.19000 0.30060
Cl         1.51000       13.76000       13.12000 0.30060
C         21.02000       12.24000       12.46000 -0.302700
H         22.04000       11.86000       12.40000 0.00070
Cl        20.13000       11.33000       13.78000 0.30060
Cl        21.04000       13.95000       12.91000 0.30060
Cl        20.13000       12.05000       10.86000 0.30060
C         14.61000       20.41000       18.34000 -0.302700
H         13.82000       21.17000       18.34000 0.00070
Cl        16.08000       21.03000       17.67000 0.30060
Cl        15.06000       19.93000       19.97000 0.30060
Cl        13.99000       19.00000       17.40000 0.30060
C         10.48000        6.84000       20.59000 -0.302700
H         10.49000        6.79000       21.68000 0.00070
Cl         8.89000        6.38000       20.00000 0.30060
Cl        10.98000        8.51000       20.20000 0.30060
Cl        11.65000        5.57000       20.08000 0.30060
C          4.36000        9.69000        6.47000 -0.302700
H          4.10000        8.64000        6.63000 0.00070
Cl         5.80000       10.09000        7.33000 0.30060
Cl         4.74000        9.88000        4.74000 0.30060
Cl         3.01000       10.84000        6.88000 0.30060
C          8.63000        5.84000       12.98000 -0.302700
H          9.64000        5.61000       13.33000 0.00070
Cl         7.36000        5.13000       14.06000 0.30060
Cl         8.47000        7.55000       12.69000 0.30060
Cl         8.41000        5.04000       11.38000 0.30060
C          3.14000        6.86000       13.90000 -0.302700
H          3.83000        6.13000       14.33000 0.00070
Cl         3.68000        8.55000       14.18000 0.30060
Cl         3.15000        6.53000       12.17000 0.30060
Cl         1.60000        6.62000       14.74000 0.30060
C         11.31000        3.29000       15.79000 -0.302700
H         12.31000        3.72000       15.75000 0.00070
Cl        10.59000        3.30000       14.22000 0.30060
Cl        11.50000        1.64000       16.34000 0.30060
Cl        10.40000        4.22000       17.00000 0.30060
C         17.44000        4.35000        8.11000 -0.302700
H         17.03000        3.38000        7.81000 0.00070
Cl        16.82000        4.55000        9.81000 0.30060
Cl        19.28000        4.48000        8.15000 0.30060
Cl        16.86000        5.62000        7.07000 0.30060
C         17.81000       15.62000       14.25000 -0.302700
H         16.90000       15.99000       14.74000 0.00070
Cl        17.65000       15.44000       12.47000 0.30060
Cl        19.02000       16.84000       14.60000 0.30060
Cl        18.42000       14.14000       15.07000 0.30060
C          7.77000        8.07000       16.65000 -0.302700
H          7.33000        7.10000       16.90000 0.00070
Cl         6.80000        8.73000       15.28000 0.30060
Cl         7.72000        9.25000       17.91000 0.30060
Cl         9.44000        7.64000       16.16000 0.30060
C          8.69000       12.67000        6.08000 -0.302700
H          7.65000       12.61000        5.76000 0.00070
Cl         9.20000       14.37000        5.79000 0.30060
Cl         8.70000       12.31000        7.83000 0.30060
Cl         9.64000       11.44000        5.13000 0.30060
C         18.83000        8.45000        9.00000 -0.302700
H         18.35000        7.53000        8.67000 0.00070
Cl        20.61000        8.29000        8.93000 0.30060
Cl        18.39000        9.84000        7.98000 0.30060
Cl        18.27000        8.70000       10.68000 0.30060
C         13.23000       19.97000        7.91000 -0.302700
H         12.29000       19.63000        8.35000 0.00070
Cl        13.06000       19.99000        6.16000 0.30060
Cl        13.68000       21.51000        8.61000 0.30060
Cl        14.50000       18.76000        8.51000 0.30060
C          7.15000       15.26000       10.87000 -0.302700
H          6.08000       15.04000       10.90000 0.00070
Cl         7.28000       16.85000       11.74000 0.30060
Cl         8.21000       14.02000       11.70000 0.30060
Cl         7.56000       15.23000        9.21000 0.30060
C         12.21000       15.40000        9.34000 -0.302700
H         12.37000       16.03000       10.21000 0.00070
Cl        13.82000       14.55000        9.01000 0.30060
Cl        11.06000       14.15000        9.88000 0.30060
Cl        11.64000       16.46000        7.98000 0.30060
C         10.92000       19.11000       11.69000 -0.302700
H         10.92000       20.18000       11.87000 0.00070
Cl        10.18000       18.69000       10.16000 0.30060
Cl        12.53000       18.44000       11.36000 0.30060
Cl        10.13000       18.43000       13.11000 0.30060
C         12.81000        8.08000        1.87000 -0.302700
H         13.78000        8.05000        1.38000 0.00070
Cl        11.48000        8.32000        0.71000 0.30060
Cl        12.71000        6.58000        2.80000 0.30060
Cl        13.08000        9.57000        2.89000 0.30060
C         12.63000       14.96000        4.72000 -0.302700
H         11.89000       14.54000        5.40000 0.00070
Cl        11.74000       16.13000        3.76000 0.30060
Cl        13.90000       15.88000        5.55000 0.30060
Cl        13.19000       13.72000        3.57000 0.30060
C          3.70000        2.83000       11.95000 -0.302700
H          3.89000        1.81000       11.61000 0.00070
Cl         2.04000        3.24000       11.44000 0.30060
Cl         3.83000        2.83000       13.77000 0.30060
Cl         4.86000        3.89000       11.21000 0.30060
C         13.94000       11.15000        7.09000 -0.302700
H         13.70000       12.21000        7.15000 0.00070
Cl        15.18000       10.91000        5.80000 0.30060
Cl        14.69000       10.80000        8.67000 0.30060
Cl        12.45000       10.24000        6.69000 0.30060
C          4.58000       11.17000       17.13000 -0.302700
H          5.06000       10.25000       16.80000 0.00070
Cl         5.28000       12.46000       16.20000 0.30060
Cl         2.88000       11.05000       16.64000 0.30060
Cl         4.90000       11.35000       18.91000 0.30060
C         17.91000       15.84000        7.06000 -0.302700
H         19.00000       15.92000        7.12000 0.00070
Cl        17.47000       14.01000        7.15000 0.30060
Cl        17.28000       16.70000        8.45000 0.30060
Cl        17.43000       16.72000        5.58000 0.30060
C         15.76000       19.50000       12.65000 -0.302700
H         14.96000       20.02000       12.11000 0.00070
Cl        17.29000       20.02000       11.83000 0.30060
Cl        15.82000       20.07000       14.32000 0.30060
Cl        15.50000       17.72000       12.57000 0.30060
C          7.46000       20.45000       14.31000 -0.302700
H          8.06000       20.21000       13.43000 0.00070
Cl         6.31000       18.92000       14.37000 0.30060
Cl         8.45000       20.57000       15.76000 0.30060
Cl         6.55000       21.91000       13.76000 0.30060
C         17.24000        3.94000       14.86000 -0.302700
H         17.88000        4.55000       15.51000 0.00070
Cl        17.98000        2.39000       14.54000 0.30060
Cl        15.73000        3.74000       15.72000 0.30060
Cl        17.19000        5.00000       13.43000 0.30060
C          5.57000       10.97000       10.65000 -0.302700
H          6.54000       10.65000       10.26000 0.00070
Cl         4.98000       12.33000        9.68000 0.30060
Cl         4.47000        9.54000       10.56000 0.30060
Cl         5.70000       11.63000       12.24000 0.30060
C         12.04000       18.42000       21.31000 -0.302700
H         13.09000       18.22000       21.49000 0.00070
Cl        11.07000       18.03000       22.84000 0.30060
Cl        11.65000       20.05000       20.76000 0.30060
Cl        11.66000       17.23000       20.02000 0.30060
C         12.51000        5.99000        8.78000 -0.302700
H         11.77000        6.79000        8.85000 0.00070
Cl        12.25000        4.95000       10.17000 0.30060
Cl        12.35000        5.11000        7.22000 0.30060
Cl        14.04000        6.88000        8.88000 0.30060
C          7.55000       16.10000       17.05000 -0.302700
H          6.77000       16.78000       16.69000 0.00070
Cl         6.87000       15.25000       18.52000 0.30060
Cl         8.01000       15.13000       15.70000 0.30060
Cl         8.78000       17.27000       17.60000 0.30060
C          3.26000       14.50000        5.19000 -0.302700
H          3.23000       15.52000        4.79000 0.00070
Cl         4.01000       13.53000        3.91000 0.30060
Cl         4.26000       14.41000        6.68000 0.30060
Cl         1.58000       13.99000        5.46000 0.30060
C          8.83000        7.65000        7.21000 -0.302700
H          8.01000        8.17000        6.72000 0.00070
Cl         8.55000        5.94000        7.58000 0.30060
Cl        10.13000        7.73000        5.99000 0.30060
Cl         9.27000        8.38000        8.80000 0.30060
C         12.21000       11.82000       18.99000 -0.302700
H         11.25000       11.46000       19.36000 0.00070
Cl        12.04000       13.29000       18.02000 0.30060
Cl        13.30000       12.24000       20.34000 0.30060
Cl        12.91000       10.52000       17.94000 0.30060
C          8.04000       12.95000       21.06000 -0.302700
H          7.65000       13.54000       20.23000 0.00070
Cl         8.46000       11.29000       20.70000 0.30060
Cl         9.43000       13.96000       21.68000 0.30060
Cl         6.77000       13.14000       22.24000 0.30060
C         16.94000       11.92000       17.87000 -0.302700
H         16.70000       11.60000       18.89000 0.00070
Cl        16.28000       13.51000       17.49000 0.30060
Cl        18.68000       12.02000       17.90000 0.30060
Cl        16.31000       10.73000       16.69000 0.30060
C         13.02000       14.30000       13.36000 -0.302700
H         12.68000       13.30000       13.62000 0.00070
Cl        11.62000       15.28000       12.99000 0.30060
Cl        13.86000       14.95000       14.79000 0.30060
Cl        14.16000       14.11000       12.01000 0.30060
C          5.49000        4.07000       18.09000 -0.302700
H          5.16000        3.03000       18.14000 0.00070
Cl         5.32000        4.72000       19.73000 0.30060
Cl         7.17000        4.15000       17.52000 0.30060
Cl         4.38000        4.90000       16.92000 0.30060

