%Mem = 2GB
%nproc=16
# b3lyp/6-31g* td 

Butadiene tddft 

0 1
C         12.41000       12.80000       13.16000 
H         12.73000       12.00000       13.83000 
C         11.90000       12.39000       11.89000 
H         11.62000       13.18000       11.19000 
C         11.81000       11.15000       11.48000 
H         12.06000       10.28000       12.07000 
H         11.57000       11.06000       10.42000 
C         12.52000       14.08000       13.61000 
H         12.42000       14.98000       13.02000 
H         12.84000       14.35000       14.61000 
  
C          9.74000       12.11000        3.80000 -0.302700
H         10.02000       11.13000        4.20000 0.00070
Cl        11.13000       13.15000        3.42000 0.30060
Cl         8.79000       11.75000        2.34000 0.30060
Cl         8.72000       13.00000        4.95000 0.30060
C          7.23000       19.44000       16.00000 -0.302700
H          8.23000       19.43000       16.46000 0.00070
Cl         7.23000       18.38000       14.63000 0.30060
Cl         6.07000       18.84000       17.19000 0.30060
Cl         6.79000       21.12000       15.59000 0.30060
C          7.24000       20.65000        7.69000 -0.302700
H          7.03000       20.95000        6.66000 0.00070
Cl         5.86000       20.54000        8.90000 0.30060
Cl         8.09000       19.06000        7.62000 0.30060
Cl         8.49000       21.93000        8.24000 0.30060
C         19.46000        9.12000       14.32000 -0.302700
H         18.64000        8.59000       13.83000 0.00070
Cl        20.25000        7.95000       15.36000 0.30060
Cl        20.69000        9.64000       13.15000 0.30060
Cl        18.79000       10.49000       15.23000 0.30060
C         11.88000        7.12000        4.77000 -0.302700
H         11.35000        7.11000        5.72000 0.00070
Cl        11.64000        8.75000        4.06000 0.30060
Cl        13.61000        6.77000        4.92000 0.30060
Cl        10.94000        5.87000        3.80000 0.30060
C         19.51000        8.11000       10.47000 -0.302700
H         20.29000        8.52000       11.11000 0.00070
Cl        19.11000        9.41000        9.30000 0.30060
Cl        20.13000        6.63000        9.82000 0.30060
Cl        18.00000        7.79000       11.35000 0.30060
C         11.23000        8.19000       19.26000 -0.302700
H         12.21000        8.11000       18.78000 0.00070
Cl        11.57000        8.57000       20.97000 0.30060
Cl        10.27000        9.25000       18.25000 0.30060
Cl        10.53000        6.61000       19.10000 0.30060
C         10.44000       17.97000       18.93000 -0.302700
H         11.12000       17.20000       19.30000 0.00070
Cl        10.85000       19.54000       19.61000 0.30060
Cl        10.47000       18.01000       17.19000 0.30060
Cl         8.90000       17.31000       19.59000 0.30060
C         10.74000        7.32000        8.81000 -0.302700
H         11.78000        7.48000        9.09000 0.00070
Cl         9.91000        6.94000       10.37000 0.30060
Cl        10.19000        8.87000        8.19000 0.30060
Cl        10.60000        5.97000        7.74000 0.30060
C         12.02000       12.46000       18.61000 -0.302700
H         11.11000       12.16000       19.14000 0.00070
Cl        12.21000       14.18000       19.10000 0.30060
Cl        13.30000       11.32000       19.32000 0.30060
Cl        11.79000       12.10000       16.84000 0.30060
C         16.81000       14.90000       17.35000 -0.302700
H         16.72000       14.96000       16.27000 0.00070
Cl        18.40000       15.18000       18.00000 0.30060
Cl        15.48000       15.90000       18.09000 0.30060
Cl        16.46000       13.19000       17.77000 0.30060
C         14.01000       10.64000        6.79000 -0.302700
H         14.64000       11.33000        7.36000 0.00070
Cl        13.65000        9.42000        8.06000 0.30060
Cl        12.70000       11.66000        6.12000 0.30060
Cl        14.83000        9.87000        5.46000 0.30060
C         19.37000       16.72000        6.36000 -0.302700
H         20.45000       16.77000        6.54000 0.00070
Cl        19.13000       15.01000        5.93000 0.30060
Cl        18.64000       17.02000        7.93000 0.30060
Cl        18.75000       17.93000        5.28000 0.30060
C          2.17000        7.91000       11.37000 -0.302700
H          2.02000        6.97000       11.90000 0.00070
Cl         3.07000        8.84000       12.58000 0.30060
Cl         2.98000        7.82000        9.79000 0.30060
Cl         0.46000        8.53000       11.28000 0.30060
C          7.89000       10.55000       13.78000 -0.302700
H          7.28000       11.40000       14.09000 0.00070
Cl         7.57000        9.16000       14.84000 0.30060
Cl         7.61000       10.11000       12.11000 0.30060
Cl         9.63000       10.90000       14.01000 0.30060
C         11.14000        3.06000       15.80000 -0.302700
H         11.71000        3.14000       16.73000 0.00070
Cl         9.55000        3.93000       15.94000 0.30060
Cl        12.09000        3.95000       14.57000 0.30060
Cl        10.83000        1.38000       15.42000 0.30060
C          8.62000       16.42000        3.39000 -0.302700
H          8.25000       15.46000        3.73000 0.00070
Cl         7.35000       17.67000        3.27000 0.30060
Cl         9.91000       16.98000        4.49000 0.30060
Cl         9.30000       16.03000        1.72000 0.30060
C          6.15000        6.37000       13.61000 -0.302700
H          5.76000        7.13000       14.30000 0.00070
Cl         5.09000        4.90000       13.86000 0.30060
Cl         5.96000        7.00000       11.95000 0.30060
Cl         7.85000        6.04000       14.05000 0.30060
C          5.99000       12.68000        7.30000 -0.302700
H          6.85000       13.35000        7.39000 0.00070
Cl         5.09000       13.19000        5.85000 0.30060
Cl         6.59000       11.04000        7.09000 0.30060
Cl         5.20000       12.96000        8.91000 0.30060
C         16.51000       20.33000        9.71000 -0.302700
H         17.00000       20.66000        8.80000 0.00070
Cl        17.42000       18.98000       10.41000 0.30060
Cl        16.29000       21.69000       10.83000 0.30060
Cl        14.92000       19.76000        9.18000 0.30060
C         11.64000       19.24000       12.24000 -0.302700
H         12.12000       20.21000       12.41000 0.00070
Cl        12.97000       18.12000       12.65000 0.30060
Cl        10.26000       19.17000       13.34000 0.30060
Cl        11.16000       18.99000       10.55000 0.30060
C         18.61000        7.22000        6.00000 -0.302700
H         19.55000        7.43000        6.52000 0.00070
Cl        18.87000        5.77000        4.99000 0.30060
Cl        17.32000        7.00000        7.18000 0.30060
Cl        18.17000        8.62000        4.93000 0.30060
C         10.23000       14.46000        7.48000 -0.302700
H         10.72000       14.40000        6.51000 0.00070
Cl        11.34000       15.15000        8.73000 0.30060
Cl         8.80000       15.50000        7.39000 0.30060
Cl         9.86000       12.78000        7.94000 0.30060
C         22.31000       14.63000       15.32000 -0.302700
H         23.09000       14.65000       16.09000 0.00070
Cl        21.91000       16.35000       14.98000 0.30060
Cl        23.02000       13.94000       13.90000 0.30060
Cl        20.94000       13.74000       15.96000 0.30060
C          7.99000       12.73000       20.47000 -0.302700
H          6.92000       12.92000       20.44000 0.00070
Cl         8.38000       11.03000       20.58000 0.30060
Cl         8.71000       13.41000       18.99000 0.30060
Cl         8.65000       13.62000       21.84000 0.30060
C         13.07000       21.27000       16.65000 -0.302700
H         13.65000       22.18000       16.48000 0.00070
Cl        11.36000       21.65000       16.91000 0.30060
Cl        13.21000       20.44000       15.15000 0.30060
Cl        13.86000       20.25000       17.86000 0.30060
C          2.66000       18.08000       13.68000 -0.302700
H          1.63000       17.77000       13.52000 0.00070
Cl         2.66000       19.70000       14.51000 0.30060
Cl         3.50000       16.90000       14.65000 0.30060
Cl         3.32000       18.21000       12.02000 0.30060
C         14.62000        5.77000       10.44000 -0.302700
H         15.50000        5.50000       11.03000 0.00070
Cl        14.65000        7.58000       10.42000 0.30060
Cl        14.78000        5.17000        8.70000 0.30060
Cl        13.13000        5.17000       11.21000 0.30060
C          7.67000       15.06000       13.95000 -0.302700
H          7.77000       16.13000       14.12000 0.00070
Cl         7.95000       14.14000       15.36000 0.30060
Cl         6.05000       14.50000       13.48000 0.30060
Cl         8.90000       14.49000       12.64000 0.30060
C         15.95000        6.03000       15.84000 -0.302700
H         15.81000        7.12000       15.83000 0.00070
Cl        17.61000        5.42000       15.67000 0.30060
Cl        15.39000        5.51000       17.45000 0.30060
Cl        14.95000        5.37000       14.56000 0.30060
C          2.76000       12.16000       14.72000 -0.302700
H          2.85000       13.16000       15.15000 0.00070
Cl         1.57000       11.23000       15.64000 0.30060
Cl         2.16000       12.31000       13.04000 0.30060
Cl         4.27000       11.17000       15.04000 0.30060
C         14.77000       15.66000        4.27000 -0.302700
H         15.44000       16.53000        4.19000 0.00070
Cl        15.79000       14.65000        5.32000 0.30060
Cl        13.27000       16.09000        5.20000 0.30060
Cl        14.43000       14.92000        2.71000 0.30060
C         14.79000        9.60000       15.20000 -0.302700
H         14.36000       10.60000       15.20000 0.00070
Cl        15.69000        9.38000       13.72000 0.30060
Cl        15.98000        9.55000       16.59000 0.30060
Cl        13.36000        8.52000       15.36000 0.30060
C          7.16000        6.88000       19.93000 -0.302700
H          7.95000        7.62000       20.04000 0.00070
Cl         7.58000        5.22000       20.53000 0.30060
Cl         5.63000        7.35000       20.66000 0.30060
Cl         6.97000        6.80000       18.09000 0.30060
C         19.21000       13.30000       12.51000 -0.302700
H         19.86000       12.79000       13.22000 0.00070
Cl        18.22000       14.54000       13.36000 0.30060
Cl        20.21000       13.65000       11.07000 0.30060
Cl        18.02000       12.11000       11.91000 0.30060
C         15.76000       14.71000        9.10000 -0.302700
H         15.72000       15.52000        8.37000 0.00070
Cl        17.19000       13.68000        8.71000 0.30060
Cl        16.21000       15.59000       10.70000 0.30060
Cl        14.19000       13.85000        9.18000 0.30060

%Mem = 2GB
%nproc=16
# b3lyp/6-31g* td 

Butadiene tddft 

0 1
C         12.41000       12.80000       13.16000 
H         12.73000       12.00000       13.83000 
C         11.90000       12.39000       11.89000 
H         11.62000       13.18000       11.19000 
C         11.81000       11.15000       11.48000 
H         12.06000       10.28000       12.07000 
H         11.57000       11.06000       10.42000 
C         12.52000       14.08000       13.61000 
H         12.42000       14.98000       13.02000 
H         12.84000       14.35000       14.61000 
  
C          9.74000       12.11000        3.80000 -0.302700
H         10.02000       11.13000        4.20000 0.00070
Cl        11.13000       13.15000        3.42000 0.30060
Cl         8.79000       11.75000        2.34000 0.30060
Cl         8.72000       13.00000        4.95000 0.30060
C          7.23000       19.44000       16.00000 -0.302700
H          8.23000       19.43000       16.46000 0.00070
Cl         7.23000       18.38000       14.63000 0.30060
Cl         6.07000       18.84000       17.19000 0.30060
Cl         6.79000       21.12000       15.59000 0.30060
C          7.24000       20.65000        7.69000 -0.302700
H          7.03000       20.95000        6.66000 0.00070
Cl         5.86000       20.54000        8.90000 0.30060
Cl         8.09000       19.06000        7.62000 0.30060
Cl         8.49000       21.93000        8.24000 0.30060
C         19.46000        9.12000       14.32000 -0.302700
H         18.64000        8.59000       13.83000 0.00070
Cl        20.25000        7.95000       15.36000 0.30060
Cl        20.69000        9.64000       13.15000 0.30060
Cl        18.79000       10.49000       15.23000 0.30060
C         11.88000        7.12000        4.77000 -0.302700
H         11.35000        7.11000        5.72000 0.00070
Cl        11.64000        8.75000        4.06000 0.30060
Cl        13.61000        6.77000        4.92000 0.30060
Cl        10.94000        5.87000        3.80000 0.30060
C         19.51000        8.11000       10.47000 -0.302700
H         20.29000        8.52000       11.11000 0.00070
Cl        19.11000        9.41000        9.30000 0.30060
Cl        20.13000        6.63000        9.82000 0.30060
Cl        18.00000        7.79000       11.35000 0.30060
C         11.23000        8.19000       19.26000 -0.302700
H         12.21000        8.11000       18.78000 0.00070
Cl        11.57000        8.57000       20.97000 0.30060
Cl        10.27000        9.25000       18.25000 0.30060
Cl        10.53000        6.61000       19.10000 0.30060
C         10.44000       17.97000       18.93000 -0.302700
H         11.12000       17.20000       19.30000 0.00070
Cl        10.85000       19.54000       19.61000 0.30060
Cl        10.47000       18.01000       17.19000 0.30060
Cl         8.90000       17.31000       19.59000 0.30060
C         10.74000        7.32000        8.81000 -0.302700
H         11.78000        7.48000        9.09000 0.00070
Cl         9.91000        6.94000       10.37000 0.30060
Cl        10.19000        8.87000        8.19000 0.30060
Cl        10.60000        5.97000        7.74000 0.30060
C         12.02000       12.46000       18.61000 -0.302700
H         11.11000       12.16000       19.14000 0.00070
Cl        12.21000       14.18000       19.10000 0.30060
Cl        13.30000       11.32000       19.32000 0.30060
Cl        11.79000       12.10000       16.84000 0.30060
C         16.81000       14.90000       17.35000 -0.302700
H         16.72000       14.96000       16.27000 0.00070
Cl        18.40000       15.18000       18.00000 0.30060
Cl        15.48000       15.90000       18.09000 0.30060
Cl        16.46000       13.19000       17.77000 0.30060
C         14.01000       10.64000        6.79000 -0.302700
H         14.64000       11.33000        7.36000 0.00070
Cl        13.65000        9.42000        8.06000 0.30060
Cl        12.70000       11.66000        6.12000 0.30060
Cl        14.83000        9.87000        5.46000 0.30060
C         19.37000       16.72000        6.36000 -0.302700
H         20.45000       16.77000        6.54000 0.00070
Cl        19.13000       15.01000        5.93000 0.30060
Cl        18.64000       17.02000        7.93000 0.30060
Cl        18.75000       17.93000        5.28000 0.30060
C          2.17000        7.91000       11.37000 -0.302700
H          2.02000        6.97000       11.90000 0.00070
Cl         3.07000        8.84000       12.58000 0.30060
Cl         2.98000        7.82000        9.79000 0.30060
Cl         0.46000        8.53000       11.28000 0.30060
C          7.89000       10.55000       13.78000 -0.302700
H          7.28000       11.40000       14.09000 0.00070
Cl         7.57000        9.16000       14.84000 0.30060
Cl         7.61000       10.11000       12.11000 0.30060
Cl         9.63000       10.90000       14.01000 0.30060
C         11.14000        3.06000       15.80000 -0.302700
H         11.71000        3.14000       16.73000 0.00070
Cl         9.55000        3.93000       15.94000 0.30060
Cl        12.09000        3.95000       14.57000 0.30060
Cl        10.83000        1.38000       15.42000 0.30060
C          8.62000       16.42000        3.39000 -0.302700
H          8.25000       15.46000        3.73000 0.00070
Cl         7.35000       17.67000        3.27000 0.30060
Cl         9.91000       16.98000        4.49000 0.30060
Cl         9.30000       16.03000        1.72000 0.30060
C          6.15000        6.37000       13.61000 -0.302700
H          5.76000        7.13000       14.30000 0.00070
Cl         5.09000        4.90000       13.86000 0.30060
Cl         5.96000        7.00000       11.95000 0.30060
Cl         7.85000        6.04000       14.05000 0.30060
C          5.99000       12.68000        7.30000 -0.302700
H          6.85000       13.35000        7.39000 0.00070
Cl         5.09000       13.19000        5.85000 0.30060
Cl         6.59000       11.04000        7.09000 0.30060
Cl         5.20000       12.96000        8.91000 0.30060
C         16.51000       20.33000        9.71000 -0.302700
H         17.00000       20.66000        8.80000 0.00070
Cl        17.42000       18.98000       10.41000 0.30060
Cl        16.29000       21.69000       10.83000 0.30060
Cl        14.92000       19.76000        9.18000 0.30060
C         11.64000       19.24000       12.24000 -0.302700
H         12.12000       20.21000       12.41000 0.00070
Cl        12.97000       18.12000       12.65000 0.30060
Cl        10.26000       19.17000       13.34000 0.30060
Cl        11.16000       18.99000       10.55000 0.30060
C         18.61000        7.22000        6.00000 -0.302700
H         19.55000        7.43000        6.52000 0.00070
Cl        18.87000        5.77000        4.99000 0.30060
Cl        17.32000        7.00000        7.18000 0.30060
Cl        18.17000        8.62000        4.93000 0.30060
C         10.23000       14.46000        7.48000 -0.302700
H         10.72000       14.40000        6.51000 0.00070
Cl        11.34000       15.15000        8.73000 0.30060
Cl         8.80000       15.50000        7.39000 0.30060
Cl         9.86000       12.78000        7.94000 0.30060
C         22.31000       14.63000       15.32000 -0.302700
H         23.09000       14.65000       16.09000 0.00070
Cl        21.91000       16.35000       14.98000 0.30060
Cl        23.02000       13.94000       13.90000 0.30060
Cl        20.94000       13.74000       15.96000 0.30060
C          7.99000       12.73000       20.47000 -0.302700
H          6.92000       12.92000       20.44000 0.00070
Cl         8.38000       11.03000       20.58000 0.30060
Cl         8.71000       13.41000       18.99000 0.30060
Cl         8.65000       13.62000       21.84000 0.30060
C         13.07000       21.27000       16.65000 -0.302700
H         13.65000       22.18000       16.48000 0.00070
Cl        11.36000       21.65000       16.91000 0.30060
Cl        13.21000       20.44000       15.15000 0.30060
Cl        13.86000       20.25000       17.86000 0.30060
C          2.66000       18.08000       13.68000 -0.302700
H          1.63000       17.77000       13.52000 0.00070
Cl         2.66000       19.70000       14.51000 0.30060
Cl         3.50000       16.90000       14.65000 0.30060
Cl         3.32000       18.21000       12.02000 0.30060
C         14.62000        5.77000       10.44000 -0.302700
H         15.50000        5.50000       11.03000 0.00070
Cl        14.65000        7.58000       10.42000 0.30060
Cl        14.78000        5.17000        8.70000 0.30060
Cl        13.13000        5.17000       11.21000 0.30060
C          7.67000       15.06000       13.95000 -0.302700
H          7.77000       16.13000       14.12000 0.00070
Cl         7.95000       14.14000       15.36000 0.30060
Cl         6.05000       14.50000       13.48000 0.30060
Cl         8.90000       14.49000       12.64000 0.30060
C         15.95000        6.03000       15.84000 -0.302700
H         15.81000        7.12000       15.83000 0.00070
Cl        17.61000        5.42000       15.67000 0.30060
Cl        15.39000        5.51000       17.45000 0.30060
Cl        14.95000        5.37000       14.56000 0.30060
C          2.76000       12.16000       14.72000 -0.302700
H          2.85000       13.16000       15.15000 0.00070
Cl         1.57000       11.23000       15.64000 0.30060
Cl         2.16000       12.31000       13.04000 0.30060
Cl         4.27000       11.17000       15.04000 0.30060
C         14.77000       15.66000        4.27000 -0.302700
H         15.44000       16.53000        4.19000 0.00070
Cl        15.79000       14.65000        5.32000 0.30060
Cl        13.27000       16.09000        5.20000 0.30060
Cl        14.43000       14.92000        2.71000 0.30060
C         14.79000        9.60000       15.20000 -0.302700
H         14.36000       10.60000       15.20000 0.00070
Cl        15.69000        9.38000       13.72000 0.30060
Cl        15.98000        9.55000       16.59000 0.30060
Cl        13.36000        8.52000       15.36000 0.30060
C          7.16000        6.88000       19.93000 -0.302700
H          7.95000        7.62000       20.04000 0.00070
Cl         7.58000        5.22000       20.53000 0.30060
Cl         5.63000        7.35000       20.66000 0.30060
Cl         6.97000        6.80000       18.09000 0.30060
C         19.21000       13.30000       12.51000 -0.302700
H         19.86000       12.79000       13.22000 0.00070
Cl        18.22000       14.54000       13.36000 0.30060
Cl        20.21000       13.65000       11.07000 0.30060
Cl        18.02000       12.11000       11.91000 0.30060
C         15.76000       14.71000        9.10000 -0.302700
H         15.72000       15.52000        8.37000 0.00070
Cl        17.19000       13.68000        8.71000 0.30060
Cl        16.21000       15.59000       10.70000 0.30060
Cl        14.19000       13.85000        9.18000 0.30060

