%Mem = 2GB
%nproc=16
# b3lyp/6-31g* td 

Butadiene tddft 

0 1
C         10.80000       12.05000       12.18000 
H         10.09000       12.02000       13.01000 
C         11.80000       11.05000       12.10000 
H         12.53000       11.26000       11.32000 
C         12.02000       10.09000       13.00000 
H         11.38000        9.89000       13.86000 
H         12.88000        9.43000       13.00000 
C         10.74000       13.06000       11.31000 
H         11.42000       13.24000       10.48000 
H         10.16000       13.97000       11.45000 
  
C         17.06000       18.39000       13.49000 -0.302700
H         16.67000       17.55000       12.91000 0.00070
Cl        18.02000       19.29000       12.34000 0.30060
Cl        15.70000       19.32000       14.18000 0.30060
Cl        18.18000       17.68000       14.62000 0.30060
C          9.18000        5.90000       11.12000 -0.302700
H          8.47000        5.23000       11.59000 0.00070
Cl         9.59000        5.27000        9.47000 0.30060
Cl         8.32000        7.43000       10.98000 0.30060
Cl        10.77000        5.91000       12.07000 0.30060
C          4.33000       11.71000       11.04000 -0.302700
H          4.16000       10.96000       11.81000 0.00070
Cl         4.17000       13.26000       11.99000 0.30060
Cl         6.08000       11.62000       10.70000 0.30060
Cl         3.23000       11.67000        9.66000 0.30060
C          7.40000       15.06000       13.63000 -0.302700
H          7.13000       14.21000       13.01000 0.00070
Cl         8.31000       16.35000       12.73000 0.30060
Cl         5.83000       15.70000       14.14000 0.30060
Cl         8.44000       14.63000       14.97000 0.30060
C          4.13000       15.84000        9.13000 -0.302700
H          4.81000       14.99000        8.99000 0.00070
Cl         4.60000       16.68000        7.58000 0.30060
Cl         2.48000       15.35000        9.41000 0.30060
Cl         4.81000       16.65000       10.47000 0.30060
C         15.13000       15.08000        5.58000 -0.302700
H         14.46000       15.88000        5.26000 0.00070
Cl        15.05000       14.91000        7.46000 0.30060
Cl        14.67000       13.57000        4.70000 0.30060
Cl        16.89000       15.46000        5.14000 0.30060
C         19.61000        8.07000       11.76000 -0.302700
H         18.73000        7.90000       11.14000 0.00070
Cl        20.54000        9.29000       10.93000 0.30060
Cl        19.10000        8.59000       13.34000 0.30060
Cl        20.41000        6.50000       11.97000 0.30060
C          7.34000       12.82000       18.25000 -0.302700
H          8.24000       13.40000       18.02000 0.00070
Cl         7.59000       12.49000       19.97000 0.30060
Cl         5.92000       13.85000       18.21000 0.30060
Cl         7.19000       11.48000       17.13000 0.30060
C         12.42000        4.60000       16.44000 -0.302700
H         13.17000        4.31000       15.70000 0.00070
Cl        11.02000        5.24000       15.50000 0.30060
Cl        11.99000        3.08000       17.28000 0.30060
Cl        13.15000        5.85000       17.63000 0.30060
C         14.70000       14.85000       16.05000 -0.302700
H         14.64000       13.82000       15.70000 0.00070
Cl        16.40000       15.29000       15.85000 0.30060
Cl        13.68000       15.84000       14.90000 0.30060
Cl        14.27000       15.08000       17.75000 0.30060
C         10.40000        1.78000       14.35000 -0.302700
H         10.94000        2.60000       14.84000 0.00070
Cl        10.09000        2.42000       12.76000 0.30060
Cl        11.31000        0.22000       14.14000 0.30060
Cl         8.92000        1.22000       15.25000 0.30060
C         18.30000       10.96000       15.38000 -0.302700
H         18.78000       10.00000       15.17000 0.00070
Cl        17.39000       11.45000       13.90000 0.30060
Cl        17.14000       10.70000       16.70000 0.30060
Cl        19.54000       12.15000       15.87000 0.30060
C         13.10000        4.42000        5.18000 -0.302700
H         12.91000        3.36000        5.01000 0.00070
Cl        12.36000        4.91000        6.72000 0.30060
Cl        14.81000        4.83000        5.24000 0.30060
Cl        12.44000        5.37000        3.81000 0.30060
C         12.01000        1.24000        9.18000 -0.302700
H         12.37000        0.29000        9.58000 0.00070
Cl        12.20000        1.23000        7.43000 0.30060
Cl        10.30000        1.46000        9.55000 0.30060
Cl        12.97000        2.47000        9.96000 0.30060
C         19.80000       13.74000        7.63000 -0.302700
H         18.98000       13.04000        7.46000 0.00070
Cl        20.45000       14.20000        6.00000 0.30060
Cl        19.31000       15.21000        8.51000 0.30060
Cl        21.07000       12.96000        8.63000 0.30060
C          5.57000        2.96000       13.59000 -0.302700
H          5.87000        2.24000       14.36000 0.00070
Cl         4.24000        4.07000       14.15000 0.30060
Cl         6.94000        4.04000       13.24000 0.30060
Cl         5.05000        1.95000       12.23000 0.30060
C         12.30000       11.13000       17.54000 -0.302700
H         11.64000       10.69000       18.29000 0.00070
Cl        11.45000       12.45000       16.74000 0.30060
Cl        13.76000       11.71000       18.32000 0.30060
Cl        12.58000        9.90000       16.34000 0.30060
C         18.05000        9.93000        3.89000 -0.302700
H         19.09000        9.79000        4.20000 0.00070
Cl        17.95000       11.54000        3.01000 0.30060
Cl        17.45000        8.47000        3.01000 0.30060
Cl        17.28000       10.14000        5.45000 0.30060
C         17.87000        6.62000       19.17000 -0.302700
H         18.17000        5.57000       19.15000 0.00070
Cl        16.89000        6.86000       20.54000 0.30060
Cl        19.43000        7.56000       19.40000 0.30060
Cl        16.95000        7.10000       17.66000 0.30060
C         16.36000        1.94000       14.58000 -0.302700
H         17.09000        1.57000       13.85000 0.00070
Cl        15.09000        2.94000       13.70000 0.30060
Cl        15.76000        0.46000       15.41000 0.30060
Cl        17.36000        3.01000       15.69000 0.30060
C         16.85000       10.97000       20.73000 -0.302700
H         16.72000       10.46000       19.77000 0.00070
Cl        16.10000       10.07000       22.01000 0.30060
Cl        18.56000       11.25000       21.09000 0.30060
Cl        16.15000       12.60000       20.77000 0.30060
C         17.70000       16.90000       18.98000 -0.302700
H         16.70000       16.91000       18.55000 0.00070
Cl        17.80000       17.66000       20.54000 0.30060
Cl        18.00000       15.19000       19.09000 0.30060
Cl        18.90000       17.68000       17.86000 0.30060
C          7.73000       21.65000       11.67000 -0.302700
H          6.85000       21.14000       11.27000 0.00070
Cl         7.77000       21.51000       13.46000 0.30060
Cl         9.18000       20.95000       10.95000 0.30060
Cl         7.44000       23.33000       11.23000 0.30060
C          8.74000       15.94000        2.83000 -0.302700
H          8.99000       16.44000        3.77000 0.00070
Cl         8.72000       17.19000        1.55000 0.30060
Cl         9.97000       14.67000        2.40000 0.30060
Cl         7.15000       15.16000        3.12000 0.30060
C         11.02000       17.66000        8.34000 -0.302700
H         10.43000       18.57000        8.19000 0.00070
Cl        10.83000       17.03000        9.94000 0.30060
Cl        10.39000       16.36000        7.25000 0.30060
Cl        12.70000       18.19000        8.06000 0.30060
C          7.13000       20.42000       16.76000 -0.302700
H          7.81000       20.52000       15.91000 0.00070
Cl         6.09000       21.89000       16.68000 0.30060
Cl         6.17000       18.92000       16.55000 0.30060
Cl         8.06000       20.63000       18.26000 0.30060
C         11.46000       19.44000       15.03000 -0.302700
H         12.00000       18.55000       15.34000 0.00070
Cl        12.41000       20.25000       13.75000 0.30060
Cl         9.95000       18.89000       14.38000 0.30060
Cl        11.16000       20.33000       16.54000 0.30060
C         17.83000        5.69000        7.99000 -0.302700
H         18.00000        5.39000        6.95000 0.00070
Cl        17.44000        7.46000        7.93000 0.30060
Cl        16.48000        4.68000        8.57000 0.30060
Cl        19.25000        5.41000        8.98000 0.30060
C          9.92000        8.58000        3.83000 -0.302700
H         10.60000        7.72000        3.88000 0.00070
Cl         9.42000        8.77000        2.07000 0.30060
Cl         8.55000        8.23000        4.84000 0.30060
Cl        10.76000       10.08000        4.53000 0.30060
C          5.22000       10.99000        6.07000 -0.302700
H          5.95000       11.36000        5.34000 0.00070
Cl         6.26000       10.38000        7.36000 0.30060
Cl         4.24000       12.34000        6.65000 0.30060
Cl         4.45000        9.58000        5.46000 0.30060
C          7.10000        4.72000        6.97000 -0.302700
H          7.47000        5.46000        7.69000 0.00070
Cl         6.13000        3.42000        7.75000 0.30060
Cl         6.12000        5.67000        5.88000 0.30060
Cl         8.54000        4.17000        6.10000 0.30060
C          4.18000        7.63000       11.17000 -0.302700
H          5.18000        7.92000       11.51000 0.00070
Cl         4.38000        5.84000       11.18000 0.30060
Cl         3.06000        8.28000       12.31000 0.30060
Cl         4.05000        8.32000        9.54000 0.30060
C          9.19000        8.36000       19.39000 -0.302700
H          9.42000        7.46000       19.97000 0.00070
Cl         7.41000        8.48000       19.32000 0.30060
Cl         9.73000        9.68000       20.51000 0.30060
Cl         9.87000        8.33000       17.72000 0.30060
C          9.75000       16.41000       19.17000 -0.302700
H         10.36000       17.30000       19.34000 0.00070
Cl        10.78000       15.09000       19.81000 0.30060
Cl         8.20000       16.56000       20.08000 0.30060
Cl         9.72000       16.43000       17.37000 0.30060
C          8.07000       19.49000        6.05000 -0.302700
H          7.64000       20.06000        5.22000 0.00070
Cl         9.76000       19.96000        6.33000 0.30060
Cl         7.18000       20.00000        7.46000 0.30060
Cl         7.86000       17.74000        5.69000 0.30060
C         15.42000        6.88000       12.45000 -0.302700
H         14.59000        6.71000       11.76000 0.00070
Cl        15.85000        8.62000       12.35000 0.30060
Cl        15.04000        6.45000       14.10000 0.30060
Cl        16.79000        5.89000       11.94000 0.30060
C         15.57000       14.86000       11.49000 -0.302700
H         15.44000       14.65000       10.43000 0.00070
Cl        14.76000       13.53000       12.39000 0.30060
Cl        17.37000       14.94000       11.85000 0.30060
Cl        14.81000       16.48000       11.72000 0.30060
C         18.13000       19.14000        8.46000 -0.302700
H         18.82000       18.35000        8.77000 0.00070
Cl        18.42000       19.12000        6.70000 0.30060
Cl        16.40000       18.74000        8.89000 0.30060
Cl        18.49000       20.72000        9.17000 0.30060
C         13.19000       10.22000        8.23000 -0.302700
H         12.34000        9.75000        8.72000 0.00070
Cl        12.86000       11.72000        7.40000 0.30060
Cl        14.54000       10.48000        9.38000 0.30060
Cl        13.80000        9.25000        6.96000 0.30060
C          7.36000        8.17000       15.01000 -0.302700
H          7.50000        8.51000       16.04000 0.00070
Cl         6.94000        9.52000       13.89000 0.30060
Cl         8.90000        7.40000       14.62000 0.30060
Cl         6.06000        6.93000       14.96000 0.30060

%Mem = 2GB
%nproc=16
# b3lyp/6-31g* td 

Butadiene tddft 

0 1
C         10.80000       12.05000       12.18000 
H         10.09000       12.02000       13.01000 
C         11.80000       11.05000       12.10000 
H         12.53000       11.26000       11.32000 
C         12.02000       10.09000       13.00000 
H         11.38000        9.89000       13.86000 
H         12.88000        9.43000       13.00000 
C         10.74000       13.06000       11.31000 
H         11.42000       13.24000       10.48000 
H         10.16000       13.97000       11.45000 
  
C         17.06000       18.39000       13.49000 -0.302700
H         16.67000       17.55000       12.91000 0.00070
Cl        18.02000       19.29000       12.34000 0.30060
Cl        15.70000       19.32000       14.18000 0.30060
Cl        18.18000       17.68000       14.62000 0.30060
C          9.18000        5.90000       11.12000 -0.302700
H          8.47000        5.23000       11.59000 0.00070
Cl         9.59000        5.27000        9.47000 0.30060
Cl         8.32000        7.43000       10.98000 0.30060
Cl        10.77000        5.91000       12.07000 0.30060
C          4.33000       11.71000       11.04000 -0.302700
H          4.16000       10.96000       11.81000 0.00070
Cl         4.17000       13.26000       11.99000 0.30060
Cl         6.08000       11.62000       10.70000 0.30060
Cl         3.23000       11.67000        9.66000 0.30060
C          7.40000       15.06000       13.63000 -0.302700
H          7.13000       14.21000       13.01000 0.00070
Cl         8.31000       16.35000       12.73000 0.30060
Cl         5.83000       15.70000       14.14000 0.30060
Cl         8.44000       14.63000       14.97000 0.30060
C          4.13000       15.84000        9.13000 -0.302700
H          4.81000       14.99000        8.99000 0.00070
Cl         4.60000       16.68000        7.58000 0.30060
Cl         2.48000       15.35000        9.41000 0.30060
Cl         4.81000       16.65000       10.47000 0.30060
C         15.13000       15.08000        5.58000 -0.302700
H         14.46000       15.88000        5.26000 0.00070
Cl        15.05000       14.91000        7.46000 0.30060
Cl        14.67000       13.57000        4.70000 0.30060
Cl        16.89000       15.46000        5.14000 0.30060
C         19.61000        8.07000       11.76000 -0.302700
H         18.73000        7.90000       11.14000 0.00070
Cl        20.54000        9.29000       10.93000 0.30060
Cl        19.10000        8.59000       13.34000 0.30060
Cl        20.41000        6.50000       11.97000 0.30060
C          7.34000       12.82000       18.25000 -0.302700
H          8.24000       13.40000       18.02000 0.00070
Cl         7.59000       12.49000       19.97000 0.30060
Cl         5.92000       13.85000       18.21000 0.30060
Cl         7.19000       11.48000       17.13000 0.30060
C         12.42000        4.60000       16.44000 -0.302700
H         13.17000        4.31000       15.70000 0.00070
Cl        11.02000        5.24000       15.50000 0.30060
Cl        11.99000        3.08000       17.28000 0.30060
Cl        13.15000        5.85000       17.63000 0.30060
C         14.70000       14.85000       16.05000 -0.302700
H         14.64000       13.82000       15.70000 0.00070
Cl        16.40000       15.29000       15.85000 0.30060
Cl        13.68000       15.84000       14.90000 0.30060
Cl        14.27000       15.08000       17.75000 0.30060
C         10.40000        1.78000       14.35000 -0.302700
H         10.94000        2.60000       14.84000 0.00070
Cl        10.09000        2.42000       12.76000 0.30060
Cl        11.31000        0.22000       14.14000 0.30060
Cl         8.92000        1.22000       15.25000 0.30060
C         18.30000       10.96000       15.38000 -0.302700
H         18.78000       10.00000       15.17000 0.00070
Cl        17.39000       11.45000       13.90000 0.30060
Cl        17.14000       10.70000       16.70000 0.30060
Cl        19.54000       12.15000       15.87000 0.30060
C         13.10000        4.42000        5.18000 -0.302700
H         12.91000        3.36000        5.01000 0.00070
Cl        12.36000        4.91000        6.72000 0.30060
Cl        14.81000        4.83000        5.24000 0.30060
Cl        12.44000        5.37000        3.81000 0.30060
C         12.01000        1.24000        9.18000 -0.302700
H         12.37000        0.29000        9.58000 0.00070
Cl        12.20000        1.23000        7.43000 0.30060
Cl        10.30000        1.46000        9.55000 0.30060
Cl        12.97000        2.47000        9.96000 0.30060
C         19.80000       13.74000        7.63000 -0.302700
H         18.98000       13.04000        7.46000 0.00070
Cl        20.45000       14.20000        6.00000 0.30060
Cl        19.31000       15.21000        8.51000 0.30060
Cl        21.07000       12.96000        8.63000 0.30060
C          5.57000        2.96000       13.59000 -0.302700
H          5.87000        2.24000       14.36000 0.00070
Cl         4.24000        4.07000       14.15000 0.30060
Cl         6.94000        4.04000       13.24000 0.30060
Cl         5.05000        1.95000       12.23000 0.30060
C         12.30000       11.13000       17.54000 -0.302700
H         11.64000       10.69000       18.29000 0.00070
Cl        11.45000       12.45000       16.74000 0.30060
Cl        13.76000       11.71000       18.32000 0.30060
Cl        12.58000        9.90000       16.34000 0.30060
C         18.05000        9.93000        3.89000 -0.302700
H         19.09000        9.79000        4.20000 0.00070
Cl        17.95000       11.54000        3.01000 0.30060
Cl        17.45000        8.47000        3.01000 0.30060
Cl        17.28000       10.14000        5.45000 0.30060
C         17.87000        6.62000       19.17000 -0.302700
H         18.17000        5.57000       19.15000 0.00070
Cl        16.89000        6.86000       20.54000 0.30060
Cl        19.43000        7.56000       19.40000 0.30060
Cl        16.95000        7.10000       17.66000 0.30060
C         16.36000        1.94000       14.58000 -0.302700
H         17.09000        1.57000       13.85000 0.00070
Cl        15.09000        2.94000       13.70000 0.30060
Cl        15.76000        0.46000       15.41000 0.30060
Cl        17.36000        3.01000       15.69000 0.30060
C         16.85000       10.97000       20.73000 -0.302700
H         16.72000       10.46000       19.77000 0.00070
Cl        16.10000       10.07000       22.01000 0.30060
Cl        18.56000       11.25000       21.09000 0.30060
Cl        16.15000       12.60000       20.77000 0.30060
C         17.70000       16.90000       18.98000 -0.302700
H         16.70000       16.91000       18.55000 0.00070
Cl        17.80000       17.66000       20.54000 0.30060
Cl        18.00000       15.19000       19.09000 0.30060
Cl        18.90000       17.68000       17.86000 0.30060
C          7.73000       21.65000       11.67000 -0.302700
H          6.85000       21.14000       11.27000 0.00070
Cl         7.77000       21.51000       13.46000 0.30060
Cl         9.18000       20.95000       10.95000 0.30060
Cl         7.44000       23.33000       11.23000 0.30060
C          8.74000       15.94000        2.83000 -0.302700
H          8.99000       16.44000        3.77000 0.00070
Cl         8.72000       17.19000        1.55000 0.30060
Cl         9.97000       14.67000        2.40000 0.30060
Cl         7.15000       15.16000        3.12000 0.30060
C         11.02000       17.66000        8.34000 -0.302700
H         10.43000       18.57000        8.19000 0.00070
Cl        10.83000       17.03000        9.94000 0.30060
Cl        10.39000       16.36000        7.25000 0.30060
Cl        12.70000       18.19000        8.06000 0.30060
C          7.13000       20.42000       16.76000 -0.302700
H          7.81000       20.52000       15.91000 0.00070
Cl         6.09000       21.89000       16.68000 0.30060
Cl         6.17000       18.92000       16.55000 0.30060
Cl         8.06000       20.63000       18.26000 0.30060
C         11.46000       19.44000       15.03000 -0.302700
H         12.00000       18.55000       15.34000 0.00070
Cl        12.41000       20.25000       13.75000 0.30060
Cl         9.95000       18.89000       14.38000 0.30060
Cl        11.16000       20.33000       16.54000 0.30060
C         17.83000        5.69000        7.99000 -0.302700
H         18.00000        5.39000        6.95000 0.00070
Cl        17.44000        7.46000        7.93000 0.30060
Cl        16.48000        4.68000        8.57000 0.30060
Cl        19.25000        5.41000        8.98000 0.30060
C          9.92000        8.58000        3.83000 -0.302700
H         10.60000        7.72000        3.88000 0.00070
Cl         9.42000        8.77000        2.07000 0.30060
Cl         8.55000        8.23000        4.84000 0.30060
Cl        10.76000       10.08000        4.53000 0.30060
C          5.22000       10.99000        6.07000 -0.302700
H          5.95000       11.36000        5.34000 0.00070
Cl         6.26000       10.38000        7.36000 0.30060
Cl         4.24000       12.34000        6.65000 0.30060
Cl         4.45000        9.58000        5.46000 0.30060
C          7.10000        4.72000        6.97000 -0.302700
H          7.47000        5.46000        7.69000 0.00070
Cl         6.13000        3.42000        7.75000 0.30060
Cl         6.12000        5.67000        5.88000 0.30060
Cl         8.54000        4.17000        6.10000 0.30060
C          4.18000        7.63000       11.17000 -0.302700
H          5.18000        7.92000       11.51000 0.00070
Cl         4.38000        5.84000       11.18000 0.30060
Cl         3.06000        8.28000       12.31000 0.30060
Cl         4.05000        8.32000        9.54000 0.30060
C          9.19000        8.36000       19.39000 -0.302700
H          9.42000        7.46000       19.97000 0.00070
Cl         7.41000        8.48000       19.32000 0.30060
Cl         9.73000        9.68000       20.51000 0.30060
Cl         9.87000        8.33000       17.72000 0.30060
C          9.75000       16.41000       19.17000 -0.302700
H         10.36000       17.30000       19.34000 0.00070
Cl        10.78000       15.09000       19.81000 0.30060
Cl         8.20000       16.56000       20.08000 0.30060
Cl         9.72000       16.43000       17.37000 0.30060
C          8.07000       19.49000        6.05000 -0.302700
H          7.64000       20.06000        5.22000 0.00070
Cl         9.76000       19.96000        6.33000 0.30060
Cl         7.18000       20.00000        7.46000 0.30060
Cl         7.86000       17.74000        5.69000 0.30060
C         15.42000        6.88000       12.45000 -0.302700
H         14.59000        6.71000       11.76000 0.00070
Cl        15.85000        8.62000       12.35000 0.30060
Cl        15.04000        6.45000       14.10000 0.30060
Cl        16.79000        5.89000       11.94000 0.30060
C         15.57000       14.86000       11.49000 -0.302700
H         15.44000       14.65000       10.43000 0.00070
Cl        14.76000       13.53000       12.39000 0.30060
Cl        17.37000       14.94000       11.85000 0.30060
Cl        14.81000       16.48000       11.72000 0.30060
C         18.13000       19.14000        8.46000 -0.302700
H         18.82000       18.35000        8.77000 0.00070
Cl        18.42000       19.12000        6.70000 0.30060
Cl        16.40000       18.74000        8.89000 0.30060
Cl        18.49000       20.72000        9.17000 0.30060
C         13.19000       10.22000        8.23000 -0.302700
H         12.34000        9.75000        8.72000 0.00070
Cl        12.86000       11.72000        7.40000 0.30060
Cl        14.54000       10.48000        9.38000 0.30060
Cl        13.80000        9.25000        6.96000 0.30060
C          7.36000        8.17000       15.01000 -0.302700
H          7.50000        8.51000       16.04000 0.00070
Cl         6.94000        9.52000       13.89000 0.30060
Cl         8.90000        7.40000       14.62000 0.30060
Cl         6.06000        6.93000       14.96000 0.30060

