%Mem = 2GB
%nproc=16
# b3lyp/6-31g* td 

Butadiene tddft 

0 1
C         12.35000       11.37000       12.64000 
H         11.37000       11.71000       12.98000 
C         12.58000       10.60000       11.38000 
H         13.62000       10.38000       11.17000 
C         11.54000       10.26000       10.60000 
H         10.51000       10.53000       10.85000 
H         11.83000        9.80000        9.66000 
C         13.23000       11.70000       13.52000 
H         14.29000       11.53000       13.33000 
H         12.97000       12.14000       14.48000 
  
C         21.78000       10.15000       15.24000 -0.302700
H         21.42000        9.38000       14.54000 0.00070
Cl        20.42000       11.11000       15.95000 0.30060
Cl        22.48000        9.22000       16.57000 0.30060
Cl        22.90000       11.13000       14.30000 0.30060
C          7.46000       15.38000       12.85000 -0.302700
H          8.52000       15.15000       12.99000 0.00070
Cl         7.03000       15.44000       11.11000 0.30060
Cl         6.60000       14.18000       13.80000 0.30060
Cl         7.31000       16.90000       13.73000 0.30060
C          5.52000       16.02000        6.18000 -0.302700
H          5.19000       15.22000        5.52000 0.00070
Cl         4.15000       17.26000        6.46000 0.30060
Cl         6.03000       15.33000        7.82000 0.30060
Cl         6.88000       16.91000        5.43000 0.30060
C         19.59000       18.02000       11.39000 -0.302700
H         19.76000       17.27000       12.16000 0.00070
Cl        21.13000       18.64000       10.79000 0.30060
Cl        18.77000       17.26000        9.97000 0.30060
Cl        18.54000       19.27000       12.10000 0.30060
C         15.53000       16.22000       20.88000 -0.302700
H         16.42000       15.90000       21.43000 0.00070
Cl        14.94000       14.88000       19.83000 0.30060
Cl        14.24000       16.84000       21.99000 0.30060
Cl        15.94000       17.61000       19.75000 0.30060
C          3.28000        9.72000       15.96000 -0.302700
H          4.08000        9.30000       16.56000 0.00070
Cl         3.97000       10.67000       14.55000 0.30060
Cl         2.34000        8.32000       15.30000 0.30060
Cl         2.24000       10.68000       16.98000 0.30060
C         20.41000        7.20000       11.87000 -0.302700
H         19.66000        6.41000       11.95000 0.00070
Cl        21.89000        6.55000       12.64000 0.30060
Cl        20.61000        7.63000       10.17000 0.30060
Cl        19.68000        8.58000       12.70000 0.30060
C         11.59000        9.68000       21.63000 -0.302700
H         10.52000        9.88000       21.70000 0.00070
Cl        12.40000        9.12000       23.14000 0.30060
Cl        11.63000        8.44000       20.25000 0.30060
Cl        12.39000       11.14000       20.96000 0.30060
C         18.43000        5.27000        8.02000 -0.302700
H         19.46000        5.01000        8.27000 0.00070
Cl        18.61000        6.42000        6.67000 0.30060
Cl        17.68000        3.75000        7.60000 0.30060
Cl        17.68000        5.95000        9.53000 0.30060
C         11.66000        4.46000       16.37000 -0.302700
H         11.85000        5.28000       15.67000 0.00070
Cl        11.36000        5.12000       17.99000 0.30060
Cl        10.10000        3.77000       16.00000 0.30060
Cl        13.10000        3.44000       16.27000 0.30060
C         11.01000       14.27000       15.00000 -0.302700
H         11.89000       13.65000       15.16000 0.00070
Cl        11.46000       15.82000       15.71000 0.30060
Cl        10.89000       14.36000       13.28000 0.30060
Cl         9.48000       13.52000       15.56000 0.30060
C          8.02000        5.00000        7.67000 -0.302700
H          8.43000        5.40000        8.60000 0.00070
Cl         6.28000        5.34000        7.53000 0.30060
Cl         8.99000        5.69000        6.34000 0.30060
Cl         8.33000        3.29000        7.82000 0.30060
C         11.78000        9.32000       16.61000 -0.302700
H         10.88000        9.33000       17.23000 0.00070
Cl        12.51000       10.89000       16.90000 0.30060
Cl        12.95000        8.04000       17.03000 0.30060
Cl        11.35000        9.11000       14.89000 0.30060
C         16.07000       14.04000       14.17000 -0.302700
H         16.86000       14.75000       14.44000 0.00070
Cl        14.90000       14.25000       15.45000 0.30060
Cl        15.30000       14.60000       12.68000 0.30060
Cl        16.49000       12.28000       14.11000 0.30060
C         14.14000        8.23000        4.13000 -0.302700
H         14.36000        8.72000        5.09000 0.00070
Cl        13.41000        6.70000        4.57000 0.30060
Cl        12.96000        8.98000        3.07000 0.30060
Cl        15.73000        7.95000        3.32000 0.30060
C         19.17000       14.58000        3.88000 -0.302700
H         18.95000       14.80000        2.83000 0.00070
Cl        19.87000       12.96000        3.90000 0.30060
Cl        20.48000       15.68000        4.39000 0.30060
Cl        17.63000       14.53000        4.82000 0.30060
C          7.85000        6.42000       12.14000 -0.302700
H          8.47000        7.04000       11.49000 0.00070
Cl         7.83000        7.06000       13.83000 0.30060
Cl         6.24000        6.37000       11.31000 0.30060
Cl         8.61000        4.84000       12.11000 0.30060
C          9.32000        1.30000       13.23000 -0.302700
H          9.68000        2.31000       13.03000 0.00070
Cl         7.93000        1.20000       14.40000 0.30060
Cl         8.95000        0.61000       11.66000 0.30060
Cl        10.86000        0.60000       13.82000 0.30060
C         16.75000        8.38000       18.70000 -0.302700
H         16.84000        9.38000       19.13000 0.00070
Cl        16.38000        8.62000       16.93000 0.30060
Cl        18.24000        7.33000       18.91000 0.30060
Cl        15.41000        7.47000       19.45000 0.30060
C         21.63000       16.28000       15.79000 -0.302700
H         22.01000       16.97000       16.55000 0.00070
Cl        20.28000       15.36000       16.37000 0.30060
Cl        21.12000       17.30000       14.43000 0.30060
Cl        22.98000       15.35000       15.24000 0.30060
C          7.51000       20.08000        9.52000 -0.302700
H          8.50000       20.47000        9.26000 0.00070
Cl         6.59000       20.42000        8.01000 0.30060
Cl         7.65000       18.29000        9.70000 0.30060
Cl         6.81000       21.01000       10.85000 0.30060
C          5.32000        9.07000        4.17000 -0.302700
H          6.17000        9.46000        3.61000 0.00070
Cl         3.87000        9.86000        3.49000 0.30060
Cl         5.22000        7.31000        4.25000 0.30060
Cl         5.47000        9.75000        5.81000 0.30060
C         15.32000       18.85000        6.67000 -0.302700
H         14.78000       19.19000        5.78000 0.00070
Cl        16.98000       19.13000        6.19000 0.30060
Cl        14.78000       20.04000        7.92000 0.30060
Cl        14.80000       17.09000        6.78000 0.30060
C         11.61000       16.75000        9.03000 -0.302700
H         12.07000       17.68000        8.68000 0.00070
Cl        12.78000       15.45000        9.42000 0.30060
Cl        10.78000       17.16000       10.56000 0.30060
Cl        10.53000       16.43000        7.65000 0.30060
C         15.14000       22.32000       11.94000 -0.302700
H         16.10000       22.83000       12.08000 0.00070
Cl        14.48000       22.95000       10.46000 0.30060
Cl        15.30000       20.53000       11.85000 0.30060
Cl        14.15000       22.60000       13.41000 0.30060
C          9.74000       10.05000        5.34000 -0.302700
H         10.57000        9.55000        4.82000 0.00070
Cl        10.34000       11.57000        6.09000 0.30060
Cl         8.53000       10.47000        4.08000 0.30060
Cl         9.11000        8.94000        6.56000 0.30060
C         21.03000       13.05000       11.88000 -0.302700
H         21.27000       12.62000       12.85000 0.00070
Cl        21.60000       14.70000       11.97000 0.30060
Cl        21.82000       11.93000       10.75000 0.30060
Cl        19.26000       13.27000       11.68000 0.30060
C          8.15000        9.70000       18.11000 -0.302700
H          7.35000        9.75000       18.86000 0.00070
Cl         8.68000        8.02000       17.86000 0.30060
Cl         7.28000       10.12000       16.58000 0.30060
Cl         9.34000       10.84000       18.76000 0.30060
C         11.51000       19.67000       13.46000 -0.302700
H         11.78000       20.35000       14.26000 0.00070
Cl        10.01000       18.86000       13.99000 0.30060
Cl        11.18000       20.54000       11.95000 0.30060
Cl        12.88000       18.50000       13.33000 0.30060
C          2.40000       14.21000       11.26000 -0.302700
H          1.50000       14.38000       10.68000 0.00070
Cl         2.66000       15.59000       12.35000 0.30060
Cl         2.16000       12.73000       12.15000 0.30060
Cl         3.73000       13.99000       10.17000 0.30060
C         13.98000        3.40000        8.86000 -0.302700
H         14.96000        3.12000        9.27000 0.00070
Cl        13.91000        5.16000        8.56000 0.30060
Cl        13.64000        2.46000        7.35000 0.30060
Cl        12.63000        3.00000       10.01000 0.30060
C          7.05000       11.86000       10.16000 -0.302700
H          6.30000       12.62000       10.40000 0.00070
Cl         7.70000       11.26000       11.76000 0.30060
Cl         6.43000       10.51000        9.12000 0.30060
Cl         8.35000       12.64000        9.13000 0.30060
C          5.72000       13.24000       19.17000 -0.302700
H          6.01000       13.94000       18.38000 0.00070
Cl         5.29000       11.62000       18.73000 0.30060
Cl         7.10000       13.21000       20.41000 0.30060
Cl         4.32000       14.06000       19.84000 0.30060
C         15.73000       11.60000       21.08000 -0.302700
H         14.90000       12.23000       21.40000 0.00070
Cl        15.56000       11.67000       19.28000 0.30060
Cl        17.21000       12.54000       21.59000 0.30060
Cl        15.71000        9.97000       21.79000 0.30060
C         15.99000        3.71000       13.32000 -0.302700
H         15.07000        4.27000       13.52000 0.00070
Cl        17.11000        5.01000       12.66000 0.30060
Cl        16.56000        2.88000       14.81000 0.30060
Cl        15.57000        2.67000       11.93000 0.30060
C          1.43000        9.70000        9.78000 -0.302700
H          1.07000       10.71000        9.99000 0.00070
Cl         0.58000        8.66000       11.01000 0.30060
Cl         1.16000        9.23000        8.14000 0.30060
Cl         3.18000        9.62000        9.92000 0.30060
C         13.87000       13.40000        1.65000 -0.302700
H         14.25000       14.19000        1.01000 0.00070
Cl        15.26000       12.47000        2.08000 0.30060
Cl        12.85000       13.99000        3.08000 0.30060
Cl        12.85000       12.50000        0.42000 0.30060
C         13.99000        8.18000       13.00000 -0.302700
H         13.28000        9.01000       13.05000 0.00070
Cl        15.54000        9.02000       12.87000 0.30060
Cl        14.00000        6.87000       14.22000 0.30060
Cl        13.69000        7.36000       11.47000 0.30060
C          5.27000        5.37000       16.20000 -0.302700
H          5.68000        5.82000       15.29000 0.00070
Cl         5.94000        3.70000       16.56000 0.30060
Cl         5.66000        6.57000       17.45000 0.30060
Cl         3.51000        5.32000       15.95000 0.30060
C         18.08000       11.07000        9.35000 -0.302700
H         18.92000       11.27000       10.01000 0.00070
Cl        16.61000       11.72000       10.06000 0.30060
Cl        18.37000       12.10000        7.94000 0.30060
Cl        17.94000        9.29000        9.05000 0.30060
C         14.30000       11.52000        6.30000 -0.302700
H         13.46000       11.84000        5.67000 0.00070
Cl        15.71000       11.06000        5.36000 0.30060
Cl        14.77000       12.76000        7.56000 0.30060
Cl        13.75000       10.07000        7.22000 0.30060

%Mem = 2GB
%nproc=16
# b3lyp/6-31g* td 

Butadiene tddft 

0 1
C         12.35000       11.37000       12.64000 
H         11.37000       11.71000       12.98000 
C         12.58000       10.60000       11.38000 
H         13.62000       10.38000       11.17000 
C         11.54000       10.26000       10.60000 
H         10.51000       10.53000       10.85000 
H         11.83000        9.80000        9.66000 
C         13.23000       11.70000       13.52000 
H         14.29000       11.53000       13.33000 
H         12.97000       12.14000       14.48000 
  
C         21.78000       10.15000       15.24000 -0.302700
H         21.42000        9.38000       14.54000 0.00070
Cl        20.42000       11.11000       15.95000 0.30060
Cl        22.48000        9.22000       16.57000 0.30060
Cl        22.90000       11.13000       14.30000 0.30060
C          7.46000       15.38000       12.85000 -0.302700
H          8.52000       15.15000       12.99000 0.00070
Cl         7.03000       15.44000       11.11000 0.30060
Cl         6.60000       14.18000       13.80000 0.30060
Cl         7.31000       16.90000       13.73000 0.30060
C          5.52000       16.02000        6.18000 -0.302700
H          5.19000       15.22000        5.52000 0.00070
Cl         4.15000       17.26000        6.46000 0.30060
Cl         6.03000       15.33000        7.82000 0.30060
Cl         6.88000       16.91000        5.43000 0.30060
C         19.59000       18.02000       11.39000 -0.302700
H         19.76000       17.27000       12.16000 0.00070
Cl        21.13000       18.64000       10.79000 0.30060
Cl        18.77000       17.26000        9.97000 0.30060
Cl        18.54000       19.27000       12.10000 0.30060
C         15.53000       16.22000       20.88000 -0.302700
H         16.42000       15.90000       21.43000 0.00070
Cl        14.94000       14.88000       19.83000 0.30060
Cl        14.24000       16.84000       21.99000 0.30060
Cl        15.94000       17.61000       19.75000 0.30060
C          3.28000        9.72000       15.96000 -0.302700
H          4.08000        9.30000       16.56000 0.00070
Cl         3.97000       10.67000       14.55000 0.30060
Cl         2.34000        8.32000       15.30000 0.30060
Cl         2.24000       10.68000       16.98000 0.30060
C         20.41000        7.20000       11.87000 -0.302700
H         19.66000        6.41000       11.95000 0.00070
Cl        21.89000        6.55000       12.64000 0.30060
Cl        20.61000        7.63000       10.17000 0.30060
Cl        19.68000        8.58000       12.70000 0.30060
C         11.59000        9.68000       21.63000 -0.302700
H         10.52000        9.88000       21.70000 0.00070
Cl        12.40000        9.12000       23.14000 0.30060
Cl        11.63000        8.44000       20.25000 0.30060
Cl        12.39000       11.14000       20.96000 0.30060
C         18.43000        5.27000        8.02000 -0.302700
H         19.46000        5.01000        8.27000 0.00070
Cl        18.61000        6.42000        6.67000 0.30060
Cl        17.68000        3.75000        7.60000 0.30060
Cl        17.68000        5.95000        9.53000 0.30060
C         11.66000        4.46000       16.37000 -0.302700
H         11.85000        5.28000       15.67000 0.00070
Cl        11.36000        5.12000       17.99000 0.30060
Cl        10.10000        3.77000       16.00000 0.30060
Cl        13.10000        3.44000       16.27000 0.30060
C         11.01000       14.27000       15.00000 -0.302700
H         11.89000       13.65000       15.16000 0.00070
Cl        11.46000       15.82000       15.71000 0.30060
Cl        10.89000       14.36000       13.28000 0.30060
Cl         9.48000       13.52000       15.56000 0.30060
C          8.02000        5.00000        7.67000 -0.302700
H          8.43000        5.40000        8.60000 0.00070
Cl         6.28000        5.34000        7.53000 0.30060
Cl         8.99000        5.69000        6.34000 0.30060
Cl         8.33000        3.29000        7.82000 0.30060
C         11.78000        9.32000       16.61000 -0.302700
H         10.88000        9.33000       17.23000 0.00070
Cl        12.51000       10.89000       16.90000 0.30060
Cl        12.95000        8.04000       17.03000 0.30060
Cl        11.35000        9.11000       14.89000 0.30060
C         16.07000       14.04000       14.17000 -0.302700
H         16.86000       14.75000       14.44000 0.00070
Cl        14.90000       14.25000       15.45000 0.30060
Cl        15.30000       14.60000       12.68000 0.30060
Cl        16.49000       12.28000       14.11000 0.30060
C         14.14000        8.23000        4.13000 -0.302700
H         14.36000        8.72000        5.09000 0.00070
Cl        13.41000        6.70000        4.57000 0.30060
Cl        12.96000        8.98000        3.07000 0.30060
Cl        15.73000        7.95000        3.32000 0.30060
C         19.17000       14.58000        3.88000 -0.302700
H         18.95000       14.80000        2.83000 0.00070
Cl        19.87000       12.96000        3.90000 0.30060
Cl        20.48000       15.68000        4.39000 0.30060
Cl        17.63000       14.53000        4.82000 0.30060
C          7.85000        6.42000       12.14000 -0.302700
H          8.47000        7.04000       11.49000 0.00070
Cl         7.83000        7.06000       13.83000 0.30060
Cl         6.24000        6.37000       11.31000 0.30060
Cl         8.61000        4.84000       12.11000 0.30060
C          9.32000        1.30000       13.23000 -0.302700
H          9.68000        2.31000       13.03000 0.00070
Cl         7.93000        1.20000       14.40000 0.30060
Cl         8.95000        0.61000       11.66000 0.30060
Cl        10.86000        0.60000       13.82000 0.30060
C         16.75000        8.38000       18.70000 -0.302700
H         16.84000        9.38000       19.13000 0.00070
Cl        16.38000        8.62000       16.93000 0.30060
Cl        18.24000        7.33000       18.91000 0.30060
Cl        15.41000        7.47000       19.45000 0.30060
C         21.63000       16.28000       15.79000 -0.302700
H         22.01000       16.97000       16.55000 0.00070
Cl        20.28000       15.36000       16.37000 0.30060
Cl        21.12000       17.30000       14.43000 0.30060
Cl        22.98000       15.35000       15.24000 0.30060
C          7.51000       20.08000        9.52000 -0.302700
H          8.50000       20.47000        9.26000 0.00070
Cl         6.59000       20.42000        8.01000 0.30060
Cl         7.65000       18.29000        9.70000 0.30060
Cl         6.81000       21.01000       10.85000 0.30060
C          5.32000        9.07000        4.17000 -0.302700
H          6.17000        9.46000        3.61000 0.00070
Cl         3.87000        9.86000        3.49000 0.30060
Cl         5.22000        7.31000        4.25000 0.30060
Cl         5.47000        9.75000        5.81000 0.30060
C         15.32000       18.85000        6.67000 -0.302700
H         14.78000       19.19000        5.78000 0.00070
Cl        16.98000       19.13000        6.19000 0.30060
Cl        14.78000       20.04000        7.92000 0.30060
Cl        14.80000       17.09000        6.78000 0.30060
C         11.61000       16.75000        9.03000 -0.302700
H         12.07000       17.68000        8.68000 0.00070
Cl        12.78000       15.45000        9.42000 0.30060
Cl        10.78000       17.16000       10.56000 0.30060
Cl        10.53000       16.43000        7.65000 0.30060
C         15.14000       22.32000       11.94000 -0.302700
H         16.10000       22.83000       12.08000 0.00070
Cl        14.48000       22.95000       10.46000 0.30060
Cl        15.30000       20.53000       11.85000 0.30060
Cl        14.15000       22.60000       13.41000 0.30060
C          9.74000       10.05000        5.34000 -0.302700
H         10.57000        9.55000        4.82000 0.00070
Cl        10.34000       11.57000        6.09000 0.30060
Cl         8.53000       10.47000        4.08000 0.30060
Cl         9.11000        8.94000        6.56000 0.30060
C         21.03000       13.05000       11.88000 -0.302700
H         21.27000       12.62000       12.85000 0.00070
Cl        21.60000       14.70000       11.97000 0.30060
Cl        21.82000       11.93000       10.75000 0.30060
Cl        19.26000       13.27000       11.68000 0.30060
C          8.15000        9.70000       18.11000 -0.302700
H          7.35000        9.75000       18.86000 0.00070
Cl         8.68000        8.02000       17.86000 0.30060
Cl         7.28000       10.12000       16.58000 0.30060
Cl         9.34000       10.84000       18.76000 0.30060
C         11.51000       19.67000       13.46000 -0.302700
H         11.78000       20.35000       14.26000 0.00070
Cl        10.01000       18.86000       13.99000 0.30060
Cl        11.18000       20.54000       11.95000 0.30060
Cl        12.88000       18.50000       13.33000 0.30060
C          2.40000       14.21000       11.26000 -0.302700
H          1.50000       14.38000       10.68000 0.00070
Cl         2.66000       15.59000       12.35000 0.30060
Cl         2.16000       12.73000       12.15000 0.30060
Cl         3.73000       13.99000       10.17000 0.30060
C         13.98000        3.40000        8.86000 -0.302700
H         14.96000        3.12000        9.27000 0.00070
Cl        13.91000        5.16000        8.56000 0.30060
Cl        13.64000        2.46000        7.35000 0.30060
Cl        12.63000        3.00000       10.01000 0.30060
C          7.05000       11.86000       10.16000 -0.302700
H          6.30000       12.62000       10.40000 0.00070
Cl         7.70000       11.26000       11.76000 0.30060
Cl         6.43000       10.51000        9.12000 0.30060
Cl         8.35000       12.64000        9.13000 0.30060
C          5.72000       13.24000       19.17000 -0.302700
H          6.01000       13.94000       18.38000 0.00070
Cl         5.29000       11.62000       18.73000 0.30060
Cl         7.10000       13.21000       20.41000 0.30060
Cl         4.32000       14.06000       19.84000 0.30060
C         15.73000       11.60000       21.08000 -0.302700
H         14.90000       12.23000       21.40000 0.00070
Cl        15.56000       11.67000       19.28000 0.30060
Cl        17.21000       12.54000       21.59000 0.30060
Cl        15.71000        9.97000       21.79000 0.30060
C         15.99000        3.71000       13.32000 -0.302700
H         15.07000        4.27000       13.52000 0.00070
Cl        17.11000        5.01000       12.66000 0.30060
Cl        16.56000        2.88000       14.81000 0.30060
Cl        15.57000        2.67000       11.93000 0.30060
C          1.43000        9.70000        9.78000 -0.302700
H          1.07000       10.71000        9.99000 0.00070
Cl         0.58000        8.66000       11.01000 0.30060
Cl         1.16000        9.23000        8.14000 0.30060
Cl         3.18000        9.62000        9.92000 0.30060
C         13.87000       13.40000        1.65000 -0.302700
H         14.25000       14.19000        1.01000 0.00070
Cl        15.26000       12.47000        2.08000 0.30060
Cl        12.85000       13.99000        3.08000 0.30060
Cl        12.85000       12.50000        0.42000 0.30060
C         13.99000        8.18000       13.00000 -0.302700
H         13.28000        9.01000       13.05000 0.00070
Cl        15.54000        9.02000       12.87000 0.30060
Cl        14.00000        6.87000       14.22000 0.30060
Cl        13.69000        7.36000       11.47000 0.30060
C          5.27000        5.37000       16.20000 -0.302700
H          5.68000        5.82000       15.29000 0.00070
Cl         5.94000        3.70000       16.56000 0.30060
Cl         5.66000        6.57000       17.45000 0.30060
Cl         3.51000        5.32000       15.95000 0.30060
C         18.08000       11.07000        9.35000 -0.302700
H         18.92000       11.27000       10.01000 0.00070
Cl        16.61000       11.72000       10.06000 0.30060
Cl        18.37000       12.10000        7.94000 0.30060
Cl        17.94000        9.29000        9.05000 0.30060
C         14.30000       11.52000        6.30000 -0.302700
H         13.46000       11.84000        5.67000 0.00070
Cl        15.71000       11.06000        5.36000 0.30060
Cl        14.77000       12.76000        7.56000 0.30060
Cl        13.75000       10.07000        7.22000 0.30060

