%Mem = 2GB
%nproc=16
# b3lyp/6-31g* td 

Butadiene tddft 

0 1
C         12.81000       10.79000       11.77000 
H         12.16000       10.05000       11.29000 
C         12.62000       11.05000       13.14000 
H         13.23000       11.84000       13.58000 
C         11.73000       10.42000       13.96000 
H         11.13000        9.65000       13.47000 
H         11.79000       10.55000       15.03000 
C         13.78000       11.36000       11.08000 
H         14.48000       12.05000       11.55000 
H         13.86000       11.32000       10.00000 
  
C         19.35000       15.93000       15.98000 -0.302700
H         19.37000       14.92000       16.41000 0.00070
Cl        18.01000       16.01000       14.76000 0.30060
Cl        19.01000       17.04000       17.40000 0.30060
Cl        21.01000       16.24000       15.39000 0.30060
C         10.07000        2.09000        9.71000 -0.302700
H         10.17000        1.01000        9.63000 0.00070
Cl        10.38000        2.43000       11.42000 0.30060
Cl        11.31000        2.75000        8.60000 0.30060
Cl         8.44000        2.56000        9.12000 0.30060
C          6.81000       13.83000       16.87000 -0.302700
H          7.76000       13.28000       16.89000 0.00070
Cl         5.48000       12.90000       16.25000 0.30060
Cl         6.55000       14.18000       18.53000 0.30060
Cl         7.10000       15.27000       15.85000 0.30060
C          5.41000        7.76000       16.49000 -0.302700
H          5.77000        7.40000       15.52000 0.00070
Cl         5.01000        9.48000       16.18000 0.30060
Cl         4.05000        6.74000       17.02000 0.30060
Cl         6.61000        7.71000       17.73000 0.30060
C         19.87000       11.87000       17.59000 -0.302700
H         19.97000       10.80000       17.79000 0.00070
Cl        20.32000       12.71000       19.09000 0.30060
Cl        21.00000       12.35000       16.26000 0.30060
Cl        18.21000       12.24000       17.15000 0.30060
C         15.09000       13.84000       21.57000 -0.302700
H         14.41000       13.15000       21.08000 0.00070
Cl        16.02000       14.80000       20.31000 0.30060
Cl        13.83000       14.97000       22.31000 0.30060
Cl        16.05000       13.16000       22.88000 0.30060
C         19.94000        9.29000        9.47000 -0.302700
H         20.94000        9.02000        9.83000 0.00070
Cl        19.74000       11.01000        8.92000 0.30060
Cl        19.56000        8.24000        8.00000 0.30060
Cl        18.73000        9.18000       10.86000 0.30060
C         10.15000       12.94000       22.17000 -0.302700
H         10.12000       11.91000       22.54000 0.00070
Cl        11.28000       12.89000       20.75000 0.30060
Cl         8.49000       13.46000       21.74000 0.30060
Cl        10.84000       14.03000       23.41000 0.30060
C         19.51000        6.25000       12.96000 -0.302700
H         18.59000        5.68000       12.80000 0.00070
Cl        20.18000        6.39000       11.34000 0.30060
Cl        19.19000        7.72000       13.85000 0.30060
Cl        20.52000        5.18000       14.01000 0.30060
C          9.90000        4.56000        5.62000 -0.302700
H         10.54000        3.76000        5.98000 0.00070
Cl         8.23000        3.91000        5.58000 0.30060
Cl        10.12000        5.92000        6.74000 0.30060
Cl        10.37000        4.95000        3.98000 0.30060
C          8.98000        9.01000       21.68000 -0.302700
H          9.50000        8.52000       22.50000 0.00070
Cl         7.99000        7.76000       20.92000 0.30060
Cl         7.94000       10.33000       22.26000 0.30060
Cl        10.30000        9.59000       20.63000 0.30060
C         13.73000       21.14000       13.45000 -0.302700
H         14.75000       20.79000       13.60000 0.00070
Cl        13.66000       22.55000       12.50000 0.30060
Cl        12.60000       19.86000       13.05000 0.30060
Cl        13.08000       21.60000       15.10000 0.30060
C          6.75000        9.68000       12.75000 -0.302700
H          6.95000       10.08000       11.75000 0.00070
Cl         5.55000       10.90000       13.26000 0.30060
Cl         5.97000        8.07000       12.51000 0.30060
Cl         8.22000        9.47000       13.76000 0.30060
C         13.52000       17.70000       16.17000 -0.302700
H         13.04000       18.58000       15.74000 0.00070
Cl        15.21000       18.07000       16.55000 0.30060
Cl        12.72000       17.50000       17.70000 0.30060
Cl        13.19000       16.24000       15.16000 0.30060
C         17.41000       19.79000       12.72000 -0.302700
H         18.38000       19.41000       12.39000 0.00070
Cl        16.63000       20.42000       11.18000 0.30060
Cl        16.43000       18.58000       13.54000 0.30060
Cl        17.83000       21.12000       13.79000 0.30060
C         18.22000       12.08000        3.17000 -0.302700
H         18.26000       11.02000        3.41000 0.00070
Cl        18.44000       12.97000        4.74000 0.30060
Cl        19.18000       12.55000        1.76000 0.30060
Cl        16.59000       12.36000        2.59000 0.30060
C         20.66000       16.01000        6.66000 -0.302700
H         20.02000       16.07000        5.77000 0.00070
Cl        20.02000       14.56000        7.47000 0.30060
Cl        22.30000       15.96000        6.07000 0.30060
Cl        20.32000       17.32000        7.74000 0.30060
C         10.47000        5.62000       16.24000 -0.302700
H          9.93000        4.67000       16.30000 0.00070
Cl        11.69000        5.73000       14.99000 0.30060
Cl         9.36000        6.92000       15.64000 0.30060
Cl        11.11000        6.12000       17.88000 0.30060
C         20.39000        5.72000       18.65000 -0.302700
H         20.86000        5.75000       19.63000 0.00070
Cl        19.19000        4.34000       18.68000 0.30060
Cl        19.72000        7.36000       18.35000 0.30060
Cl        21.65000        5.42000       17.41000 0.30060
C         12.74000       18.12000        5.41000 -0.302700
H         12.82000       18.14000        4.32000 0.00070
Cl        10.98000       18.10000        5.69000 0.30060
Cl        13.52000       16.58000        5.93000 0.30060
Cl        13.65000       19.54000        6.00000 0.30060
C         11.49000       17.45000        9.53000 -0.302700
H         11.94000       18.26000        8.96000 0.00070
Cl        10.67000       16.16000        8.63000 0.30060
Cl        12.85000       16.78000       10.53000 0.30060
Cl        10.49000       18.27000       10.71000 0.30060
C         12.10000        8.85000        1.62000 -0.302700
H         11.66000        7.85000        1.61000 0.00070
Cl        10.70000        9.93000        1.72000 0.30060
Cl        13.17000        8.92000        3.03000 0.30060
Cl        13.10000        9.22000        0.15000 0.30060
C         15.66000       14.00000        8.40000 -0.302700
H         14.68000       14.20000        8.84000 0.00070
Cl        16.58000       15.48000        8.68000 0.30060
Cl        16.54000       12.77000        9.34000 0.30060
Cl        15.67000       13.64000        6.65000 0.30060
C         17.05000       11.87000       13.92000 -0.302700
H         17.69000       11.61000       14.76000 0.00070
Cl        16.08000       13.29000       14.29000 0.30060
Cl        18.15000       12.31000       12.59000 0.30060
Cl        16.15000       10.40000       13.49000 0.30060
C         14.14000        4.04000        5.57000 -0.302700
H         15.12000        3.81000        5.14000 0.00070
Cl        13.20000        2.54000        5.30000 0.30060
Cl        14.45000        4.30000        7.24000 0.30060
Cl        13.65000        5.47000        4.67000 0.30060
C         14.93000        3.38000       18.33000 -0.302700
H         14.84000        3.03000       19.36000 0.00070
Cl        13.26000        3.30000       17.70000 0.30060
Cl        15.48000        5.03000       18.55000 0.30060
Cl        16.22000        2.48000       17.42000 0.30060
C         11.66000       11.98000        5.92000 -0.302700
H         10.72000       12.46000        5.63000 0.00070
Cl        12.25000       12.87000        7.33000 0.30060
Cl        11.40000       10.27000        6.36000 0.30060
Cl        12.79000       11.91000        4.60000 0.30060
C         20.93000       15.56000       10.78000 -0.302700
H         20.83000       15.15000        9.77000 0.00070
Cl        22.07000       16.87000       10.55000 0.30060
Cl        19.31000       15.93000       11.49000 0.30060
Cl        21.63000       14.35000       11.80000 0.30060
C          8.62000       17.48000       18.68000 -0.302700
H          7.59000       17.27000       18.38000 0.00070
Cl         9.34000       18.29000       17.19000 0.30060
Cl         8.83000       18.46000       20.15000 0.30060
Cl         9.41000       15.93000       19.04000 0.30060
C          2.62000       16.65000       13.12000 -0.302700
H          2.32000       16.74000       14.17000 0.00070
Cl         1.26000       15.86000       12.30000 0.30060
Cl         2.62000       18.31000       12.63000 0.30060
Cl         4.14000       15.82000       12.94000 0.30060
C         10.85000        6.14000       10.77000 -0.302700
H         10.82000        5.34000       10.03000 0.00070
Cl        10.10000        7.62000       10.09000 0.30060
Cl         9.82000        5.68000       12.13000 0.30060
Cl        12.49000        6.49000       11.35000 0.30060
C          6.71000       19.02000       13.80000 -0.302700
H          6.28000       19.61000       12.99000 0.00070
Cl         7.59000       17.67000       13.09000 0.30060
Cl         7.85000       20.04000       14.70000 0.30060
Cl         5.47000       18.48000       14.97000 0.30060
C         15.44000       10.08000       19.35000 -0.302700
H         15.94000       11.05000       19.30000 0.00070
Cl        13.91000       10.53000       20.18000 0.30060
Cl        15.23000        9.45000       17.69000 0.30060
Cl        16.47000        9.03000       20.36000 0.30060
C          6.91000       14.10000        9.32000 -0.302700
H          5.93000       13.83000        8.93000 0.00070
Cl         7.10000       13.40000       10.90000 0.30060
Cl         8.18000       13.42000        8.27000 0.30060
Cl         7.14000       15.90000        9.33000 0.30060
C         17.64000       16.30000        3.89000 -0.302700
H         17.39000       15.26000        3.66000 0.00070
Cl        17.48000       16.39000        5.65000 0.30060
Cl        19.28000       16.82000        3.43000 0.30060
Cl        16.47000       17.22000        2.85000 0.30060
C         15.26000        5.56000       13.51000 -0.302700
H         14.24000        5.18000       13.39000 0.00070
Cl        15.92000        5.69000       11.94000 0.30060
Cl        15.25000        7.14000       14.39000 0.30060
Cl        16.24000        4.37000       14.35000 0.30060
C          5.54000       11.33000        6.05000 -0.302700
H          6.45000       11.92000        5.92000 0.00070
Cl         4.11000       12.36000        5.68000 0.30060
Cl         5.66000       10.02000        4.88000 0.30060
Cl         5.78000       11.02000        7.83000 0.30060
C         15.22000        8.72000        6.82000 -0.302700
H         14.48000        8.36000        6.10000 0.00070
Cl        16.65000        7.64000        6.93000 0.30060
Cl        15.83000       10.24000        6.21000 0.30060
Cl        14.49000        8.94000        8.38000 0.30060
C          7.16000        4.28000       13.69000 -0.302700
H          7.61000        5.24000       13.44000 0.00070
Cl         8.26000        3.12000       14.48000 0.30060
Cl         5.82000        4.68000       14.75000 0.30060
Cl         6.69000        3.79000       12.00000 0.30060

%Mem = 2GB
%nproc=16
# b3lyp/6-31g* td 

Butadiene tddft 

0 1
C         12.81000       10.79000       11.77000 
H         12.16000       10.05000       11.29000 
C         12.62000       11.05000       13.14000 
H         13.23000       11.84000       13.58000 
C         11.73000       10.42000       13.96000 
H         11.13000        9.65000       13.47000 
H         11.79000       10.55000       15.03000 
C         13.78000       11.36000       11.08000 
H         14.48000       12.05000       11.55000 
H         13.86000       11.32000       10.00000 
  
C         19.35000       15.93000       15.98000 -0.302700
H         19.37000       14.92000       16.41000 0.00070
Cl        18.01000       16.01000       14.76000 0.30060
Cl        19.01000       17.04000       17.40000 0.30060
Cl        21.01000       16.24000       15.39000 0.30060
C         10.07000        2.09000        9.71000 -0.302700
H         10.17000        1.01000        9.63000 0.00070
Cl        10.38000        2.43000       11.42000 0.30060
Cl        11.31000        2.75000        8.60000 0.30060
Cl         8.44000        2.56000        9.12000 0.30060
C          6.81000       13.83000       16.87000 -0.302700
H          7.76000       13.28000       16.89000 0.00070
Cl         5.48000       12.90000       16.25000 0.30060
Cl         6.55000       14.18000       18.53000 0.30060
Cl         7.10000       15.27000       15.85000 0.30060
C          5.41000        7.76000       16.49000 -0.302700
H          5.77000        7.40000       15.52000 0.00070
Cl         5.01000        9.48000       16.18000 0.30060
Cl         4.05000        6.74000       17.02000 0.30060
Cl         6.61000        7.71000       17.73000 0.30060
C         19.87000       11.87000       17.59000 -0.302700
H         19.97000       10.80000       17.79000 0.00070
Cl        20.32000       12.71000       19.09000 0.30060
Cl        21.00000       12.35000       16.26000 0.30060
Cl        18.21000       12.24000       17.15000 0.30060
C         15.09000       13.84000       21.57000 -0.302700
H         14.41000       13.15000       21.08000 0.00070
Cl        16.02000       14.80000       20.31000 0.30060
Cl        13.83000       14.97000       22.31000 0.30060
Cl        16.05000       13.16000       22.88000 0.30060
C         19.94000        9.29000        9.47000 -0.302700
H         20.94000        9.02000        9.83000 0.00070
Cl        19.74000       11.01000        8.92000 0.30060
Cl        19.56000        8.24000        8.00000 0.30060
Cl        18.73000        9.18000       10.86000 0.30060
C         10.15000       12.94000       22.17000 -0.302700
H         10.12000       11.91000       22.54000 0.00070
Cl        11.28000       12.89000       20.75000 0.30060
Cl         8.49000       13.46000       21.74000 0.30060
Cl        10.84000       14.03000       23.41000 0.30060
C         19.51000        6.25000       12.96000 -0.302700
H         18.59000        5.68000       12.80000 0.00070
Cl        20.18000        6.39000       11.34000 0.30060
Cl        19.19000        7.72000       13.85000 0.30060
Cl        20.52000        5.18000       14.01000 0.30060
C          9.90000        4.56000        5.62000 -0.302700
H         10.54000        3.76000        5.98000 0.00070
Cl         8.23000        3.91000        5.58000 0.30060
Cl        10.12000        5.92000        6.74000 0.30060
Cl        10.37000        4.95000        3.98000 0.30060
C          8.98000        9.01000       21.68000 -0.302700
H          9.50000        8.52000       22.50000 0.00070
Cl         7.99000        7.76000       20.92000 0.30060
Cl         7.94000       10.33000       22.26000 0.30060
Cl        10.30000        9.59000       20.63000 0.30060
C         13.73000       21.14000       13.45000 -0.302700
H         14.75000       20.79000       13.60000 0.00070
Cl        13.66000       22.55000       12.50000 0.30060
Cl        12.60000       19.86000       13.05000 0.30060
Cl        13.08000       21.60000       15.10000 0.30060
C          6.75000        9.68000       12.75000 -0.302700
H          6.95000       10.08000       11.75000 0.00070
Cl         5.55000       10.90000       13.26000 0.30060
Cl         5.97000        8.07000       12.51000 0.30060
Cl         8.22000        9.47000       13.76000 0.30060
C         13.52000       17.70000       16.17000 -0.302700
H         13.04000       18.58000       15.74000 0.00070
Cl        15.21000       18.07000       16.55000 0.30060
Cl        12.72000       17.50000       17.70000 0.30060
Cl        13.19000       16.24000       15.16000 0.30060
C         17.41000       19.79000       12.72000 -0.302700
H         18.38000       19.41000       12.39000 0.00070
Cl        16.63000       20.42000       11.18000 0.30060
Cl        16.43000       18.58000       13.54000 0.30060
Cl        17.83000       21.12000       13.79000 0.30060
C         18.22000       12.08000        3.17000 -0.302700
H         18.26000       11.02000        3.41000 0.00070
Cl        18.44000       12.97000        4.74000 0.30060
Cl        19.18000       12.55000        1.76000 0.30060
Cl        16.59000       12.36000        2.59000 0.30060
C         20.66000       16.01000        6.66000 -0.302700
H         20.02000       16.07000        5.77000 0.00070
Cl        20.02000       14.56000        7.47000 0.30060
Cl        22.30000       15.96000        6.07000 0.30060
Cl        20.32000       17.32000        7.74000 0.30060
C         10.47000        5.62000       16.24000 -0.302700
H          9.93000        4.67000       16.30000 0.00070
Cl        11.69000        5.73000       14.99000 0.30060
Cl         9.36000        6.92000       15.64000 0.30060
Cl        11.11000        6.12000       17.88000 0.30060
C         20.39000        5.72000       18.65000 -0.302700
H         20.86000        5.75000       19.63000 0.00070
Cl        19.19000        4.34000       18.68000 0.30060
Cl        19.72000        7.36000       18.35000 0.30060
Cl        21.65000        5.42000       17.41000 0.30060
C         12.74000       18.12000        5.41000 -0.302700
H         12.82000       18.14000        4.32000 0.00070
Cl        10.98000       18.10000        5.69000 0.30060
Cl        13.52000       16.58000        5.93000 0.30060
Cl        13.65000       19.54000        6.00000 0.30060
C         11.49000       17.45000        9.53000 -0.302700
H         11.94000       18.26000        8.96000 0.00070
Cl        10.67000       16.16000        8.63000 0.30060
Cl        12.85000       16.78000       10.53000 0.30060
Cl        10.49000       18.27000       10.71000 0.30060
C         12.10000        8.85000        1.62000 -0.302700
H         11.66000        7.85000        1.61000 0.00070
Cl        10.70000        9.93000        1.72000 0.30060
Cl        13.17000        8.92000        3.03000 0.30060
Cl        13.10000        9.22000        0.15000 0.30060
C         15.66000       14.00000        8.40000 -0.302700
H         14.68000       14.20000        8.84000 0.00070
Cl        16.58000       15.48000        8.68000 0.30060
Cl        16.54000       12.77000        9.34000 0.30060
Cl        15.67000       13.64000        6.65000 0.30060
C         17.05000       11.87000       13.92000 -0.302700
H         17.69000       11.61000       14.76000 0.00070
Cl        16.08000       13.29000       14.29000 0.30060
Cl        18.15000       12.31000       12.59000 0.30060
Cl        16.15000       10.40000       13.49000 0.30060
C         14.14000        4.04000        5.57000 -0.302700
H         15.12000        3.81000        5.14000 0.00070
Cl        13.20000        2.54000        5.30000 0.30060
Cl        14.45000        4.30000        7.24000 0.30060
Cl        13.65000        5.47000        4.67000 0.30060
C         14.93000        3.38000       18.33000 -0.302700
H         14.84000        3.03000       19.36000 0.00070
Cl        13.26000        3.30000       17.70000 0.30060
Cl        15.48000        5.03000       18.55000 0.30060
Cl        16.22000        2.48000       17.42000 0.30060
C         11.66000       11.98000        5.92000 -0.302700
H         10.72000       12.46000        5.63000 0.00070
Cl        12.25000       12.87000        7.33000 0.30060
Cl        11.40000       10.27000        6.36000 0.30060
Cl        12.79000       11.91000        4.60000 0.30060
C         20.93000       15.56000       10.78000 -0.302700
H         20.83000       15.15000        9.77000 0.00070
Cl        22.07000       16.87000       10.55000 0.30060
Cl        19.31000       15.93000       11.49000 0.30060
Cl        21.63000       14.35000       11.80000 0.30060
C          8.62000       17.48000       18.68000 -0.302700
H          7.59000       17.27000       18.38000 0.00070
Cl         9.34000       18.29000       17.19000 0.30060
Cl         8.83000       18.46000       20.15000 0.30060
Cl         9.41000       15.93000       19.04000 0.30060
C          2.62000       16.65000       13.12000 -0.302700
H          2.32000       16.74000       14.17000 0.00070
Cl         1.26000       15.86000       12.30000 0.30060
Cl         2.62000       18.31000       12.63000 0.30060
Cl         4.14000       15.82000       12.94000 0.30060
C         10.85000        6.14000       10.77000 -0.302700
H         10.82000        5.34000       10.03000 0.00070
Cl        10.10000        7.62000       10.09000 0.30060
Cl         9.82000        5.68000       12.13000 0.30060
Cl        12.49000        6.49000       11.35000 0.30060
C          6.71000       19.02000       13.80000 -0.302700
H          6.28000       19.61000       12.99000 0.00070
Cl         7.59000       17.67000       13.09000 0.30060
Cl         7.85000       20.04000       14.70000 0.30060
Cl         5.47000       18.48000       14.97000 0.30060
C         15.44000       10.08000       19.35000 -0.302700
H         15.94000       11.05000       19.30000 0.00070
Cl        13.91000       10.53000       20.18000 0.30060
Cl        15.23000        9.45000       17.69000 0.30060
Cl        16.47000        9.03000       20.36000 0.30060
C          6.91000       14.10000        9.32000 -0.302700
H          5.93000       13.83000        8.93000 0.00070
Cl         7.10000       13.40000       10.90000 0.30060
Cl         8.18000       13.42000        8.27000 0.30060
Cl         7.14000       15.90000        9.33000 0.30060
C         17.64000       16.30000        3.89000 -0.302700
H         17.39000       15.26000        3.66000 0.00070
Cl        17.48000       16.39000        5.65000 0.30060
Cl        19.28000       16.82000        3.43000 0.30060
Cl        16.47000       17.22000        2.85000 0.30060
C         15.26000        5.56000       13.51000 -0.302700
H         14.24000        5.18000       13.39000 0.00070
Cl        15.92000        5.69000       11.94000 0.30060
Cl        15.25000        7.14000       14.39000 0.30060
Cl        16.24000        4.37000       14.35000 0.30060
C          5.54000       11.33000        6.05000 -0.302700
H          6.45000       11.92000        5.92000 0.00070
Cl         4.11000       12.36000        5.68000 0.30060
Cl         5.66000       10.02000        4.88000 0.30060
Cl         5.78000       11.02000        7.83000 0.30060
C         15.22000        8.72000        6.82000 -0.302700
H         14.48000        8.36000        6.10000 0.00070
Cl        16.65000        7.64000        6.93000 0.30060
Cl        15.83000       10.24000        6.21000 0.30060
Cl        14.49000        8.94000        8.38000 0.30060
C          7.16000        4.28000       13.69000 -0.302700
H          7.61000        5.24000       13.44000 0.00070
Cl         8.26000        3.12000       14.48000 0.30060
Cl         5.82000        4.68000       14.75000 0.30060
Cl         6.69000        3.79000       12.00000 0.30060

