%Mem = 2GB
%nproc=16
# b3lyp/6-31g* td 

Butadiene tddft 

0 1
C         11.96000       12.35000       10.15000 
H         11.43000       13.15000        9.64000 
C         11.16000       11.16000       10.56000 
H         11.66000       10.32000       11.04000 
C          9.83000       11.08000       10.41000 
H          9.29000       11.77000        9.76000 
H          9.27000       10.21000       10.73000 
C         13.20000       12.59000       10.46000 
H         13.73000       11.71000       10.82000 
H         13.69000       13.52000       10.17000 
  
C          6.69000       10.71000       20.35000 -0.302700
H          6.83000       11.79000       20.52000 0.00070
Cl         7.00000       10.36000       18.69000 0.30060
Cl         7.89000        9.75000       21.20000 0.30060
Cl         5.02000       10.24000       20.89000 0.30060
C         11.59000       11.34000        6.53000 -0.302700
H         11.43000       10.99000        7.55000 0.00070
Cl        10.00000       11.83000        5.85000 0.30060
Cl        12.84000       12.64000        6.53000 0.30060
Cl        12.31000       10.08000        5.54000 0.30060
C         14.52000       17.31000       17.93000 -0.302700
H         15.12000       18.15000       17.57000 0.00070
Cl        14.73000       15.92000       16.88000 0.30060
Cl        14.86000       16.88000       19.55000 0.30060
Cl        12.86000       17.92000       17.83000 0.30060
C          4.92000       12.61000       10.33000 -0.302700
H          4.45000       12.21000       11.24000 0.00070
Cl         4.02000       14.12000        9.90000 0.30060
Cl         6.66000       12.89000       10.77000 0.30060
Cl         4.89000       11.37000        9.06000 0.30060
C          7.87000        3.11000       15.51000 -0.302700
H          7.00000        3.19000       16.17000 0.00070
Cl         8.96000        2.10000       16.56000 0.30060
Cl         7.37000        2.12000       14.11000 0.30060
Cl         8.59000        4.65000       15.12000 0.30060
C          8.73000       16.01000        9.12000 -0.302700
H          8.53000       15.03000        8.69000 0.00070
Cl         9.15000       17.26000        7.98000 0.30060
Cl         7.17000       16.40000       10.13000 0.30060
Cl        10.12000       15.78000       10.15000 0.30060
C          4.77000       14.63000        5.23000 -0.302700
H          4.72000       13.70000        5.80000 0.00070
Cl         4.36000       14.32000        3.61000 0.30060
Cl         3.53000       15.59000        6.05000 0.30060
Cl         6.44000       15.21000        5.29000 0.30060
C         20.35000        8.27000        7.43000 -0.302700
H         20.23000        8.70000        8.42000 0.00070
Cl        19.34000        9.36000        6.40000 0.30060
Cl        22.00000        8.38000        6.99000 0.30060
Cl        19.65000        6.66000        7.44000 0.30060
C          7.83000       14.18000       14.63000 -0.302700
H          8.17000       15.22000       14.70000 0.00070
Cl         7.84000       13.42000       16.24000 0.30060
Cl         6.22000       14.16000       13.99000 0.30060
Cl         8.90000       13.48000       13.35000 0.30060
C         13.42000        7.56000       13.87000 -0.302700
H         14.22000        6.98000       13.42000 0.00070
Cl        11.87000        6.69000       13.44000 0.30060
Cl        13.72000        7.44000       15.66000 0.30060
Cl        13.71000        9.11000       13.11000 0.30060
C         14.94000       17.55000       10.03000 -0.302700
H         14.61000       17.90000        9.05000 0.00070
Cl        16.21000       16.30000        9.90000 0.30060
Cl        15.41000       18.96000       10.97000 0.30060
Cl        13.60000       16.79000       10.87000 0.30060
C          9.06000        1.43000        9.14000 -0.302700
H          8.87000        0.47000        9.62000 0.00070
Cl         9.57000        2.60000       10.52000 0.30060
Cl        10.38000        1.07000        8.11000 0.30060
Cl         7.55000        2.15000        8.44000 0.30060
C         17.62000       12.03000       11.92000 -0.302700
H         18.59000       12.45000       12.20000 0.00070
Cl        17.41000       10.46000       12.79000 0.30060
Cl        16.47000       13.16000       12.53000 0.30060
Cl        17.58000       11.87000       10.16000 0.30060
C         12.53000       20.68000        6.38000 -0.302700
H         12.30000       19.82000        5.76000 0.00070
Cl        12.53000       20.18000        8.11000 0.30060
Cl        14.16000       21.28000        5.94000 0.30060
Cl        11.27000       21.83000        5.73000 0.30060
C         21.16000       11.16000       16.47000 -0.302700
H         21.53000       10.17000       16.18000 0.00070
Cl        20.27000       11.25000       17.97000 0.30060
Cl        22.65000       12.18000       16.57000 0.30060
Cl        20.14000       11.73000       15.11000 0.30060
C         11.28000        4.19000        6.23000 -0.302700
H         10.47000        4.08000        6.96000 0.00070
Cl        10.57000        3.68000        4.71000 0.30060
Cl        11.58000        5.91000        6.14000 0.30060
Cl        12.69000        3.36000        6.77000 0.30060
C          4.01000        3.37000       10.13000 -0.302700
H          4.75000        3.13000        9.37000 0.00070
Cl         2.31000        3.15000        9.65000 0.30060
Cl         4.69000        2.53000       11.55000 0.30060
Cl         4.35000        5.12000       10.43000 0.30060
C         11.65000       14.22000       14.72000 -0.302700
H         11.04000       13.44000       14.25000 0.00070
Cl        11.09000       15.88000       14.45000 0.30060
Cl        11.74000       13.81000       16.50000 0.30060
Cl        13.30000       14.09000       13.98000 0.30060
C         14.07000        2.77000       12.70000 -0.302700
H         13.26000        2.05000       12.84000 0.00070
Cl        13.66000        3.45000       11.17000 0.30060
Cl        13.93000        4.04000       13.99000 0.30060
Cl        15.61000        1.85000       12.61000 0.30060
C         17.07000        9.80000       17.20000 -0.302700
H         17.78000       10.48000       16.72000 0.00070
Cl        15.45000        9.96000       16.61000 0.30060
Cl        17.68000        8.19000       16.76000 0.30060
Cl        17.20000       10.05000       18.92000 0.30060
C         13.17000       21.49000       15.63000 -0.302700
H         13.98000       20.95000       16.11000 0.00070
Cl        12.60000       20.41000       14.33000 0.30060
Cl        12.02000       21.68000       16.95000 0.30060
Cl        13.65000       23.09000       15.02000 0.30060
C         18.10000       17.44000       14.37000 -0.302700
H         18.91000       17.67000       15.06000 0.00070
Cl        18.47000       17.46000       12.59000 0.30060
Cl        17.52000       15.75000       14.73000 0.30060
Cl        16.82000       18.63000       14.73000 0.30060
C         11.74000       12.74000       21.04000 -0.302700
H         10.81000       12.17000       21.03000 0.00070
Cl        12.77000       12.35000       19.61000 0.30060
Cl        11.09000       14.37000       20.75000 0.30060
Cl        12.71000       12.69000       22.58000 0.30060
C         18.42000        3.93000       14.25000 -0.302700
H         17.82000        3.42000       15.01000 0.00070
Cl        19.08000        2.68000       13.13000 0.30060
Cl        17.25000        5.03000       13.39000 0.30060
Cl        19.72000        4.82000       15.18000 0.30060
C         13.14000       16.57000        3.68000 -0.302700
H         12.99000       16.79000        2.62000 0.00070
Cl        14.23000       17.77000        4.40000 0.30060
Cl        11.55000       16.71000        4.59000 0.30060
Cl        14.00000       15.01000        3.73000 0.30060
C         15.55000        7.66000        3.28000 -0.302700
H         15.28000        8.71000        3.41000 0.00070
Cl        14.42000        6.86000        4.41000 0.30060
Cl        15.24000        7.18000        1.58000 0.30060
Cl        17.21000        7.57000        3.79000 0.30060
C         10.11000        9.37000        2.48000 -0.302700
H         10.97000        8.72000        2.63000 0.00070
Cl         9.38000        8.83000        0.97000 0.30060
Cl         8.99000        9.20000        3.92000 0.30060
Cl        10.71000       11.02000        2.11000 0.30060
C         11.99000        4.77000       19.15000 -0.302700
H         11.66000        5.29000       20.06000 0.00070
Cl        11.66000        3.05000       19.28000 0.30060
Cl        11.29000        5.53000       17.69000 0.30060
Cl        13.80000        5.03000       18.98000 0.30060
C          3.43000        9.22000        5.68000 -0.302700
H          4.51000        9.26000        5.84000 0.00070
Cl         2.94000        8.37000        4.28000 0.30060
Cl         2.85000        8.47000        7.22000 0.30060
Cl         2.73000       10.91000        5.56000 0.30060
C          6.23000       10.92000        3.54000 -0.302700
H          6.56000        9.90000        3.31000 0.00070
Cl         7.25000       12.16000        2.72000 0.30060
Cl         4.60000       10.99000        2.84000 0.30060
Cl         6.27000       11.04000        5.29000 0.30060
C          6.30000        4.26000        3.94000 -0.302700
H          6.08000        3.56000        4.76000 0.00070
Cl         4.82000        5.17000        3.64000 0.30060
Cl         7.53000        5.46000        4.42000 0.30060
Cl         6.79000        3.31000        2.56000 0.30060
C          7.71000        7.36000        8.25000 -0.302700
H          7.32000        7.96000        9.07000 0.00070
Cl         8.49000        5.90000        8.91000 0.30060
Cl         6.20000        6.94000        7.26000 0.30060
Cl         8.90000        8.24000        7.31000 0.30060
C          2.17000        7.85000       11.64000 -0.302700
H          2.69000        6.91000       11.84000 0.00070
Cl         0.90000        7.69000       10.44000 0.30060
Cl         1.73000        8.72000       13.13000 0.30060
Cl         3.55000        8.73000       10.87000 0.30060
C         10.50000        9.03000       16.28000 -0.302700
H         11.21000        8.25000       15.99000 0.00070
Cl         8.86000        8.37000       16.25000 0.30060
Cl        10.85000        9.23000       18.00000 0.30060
Cl        10.73000       10.54000       15.43000 0.30060
C          7.85000       18.74000       14.19000 -0.302700
H          8.11000       19.77000       14.41000 0.00070
Cl         7.87000       17.80000       15.69000 0.30060
Cl         6.21000       18.84000       13.51000 0.30060
Cl         8.99000       18.29000       12.88000 0.30060
C          9.32000       19.84000        2.78000 -0.302700
H          9.05000       19.20000        1.94000 0.00070
Cl         8.18000       21.21000        3.00000 0.30060
Cl         8.99000       18.82000        4.19000 0.30060
Cl        11.06000       20.26000        2.67000 0.30060
C         14.11000        7.48000        8.67000 -0.302700
H         14.06000        6.79000        7.82000 0.00070
Cl        15.07000        8.87000        8.19000 0.30060
Cl        12.50000        8.04000        9.14000 0.30060
Cl        15.00000        6.80000       10.08000 0.30060
C         17.76000       14.43000        6.55000 -0.302700
H         18.15000       14.17000        5.57000 0.00070
Cl        19.18000       14.37000        7.66000 0.30060
Cl        17.19000       16.11000        6.37000 0.30060
Cl        16.62000       13.29000        7.22000 0.30060
C         15.44000       12.08000        3.99000 -0.302700
H         14.92000       12.79000        4.63000 0.00070
Cl        14.60000       11.50000        2.56000 0.30060
Cl        16.90000       12.84000        3.47000 0.30060
Cl        15.98000       10.65000        4.88000 0.30060
C          7.23000        8.40000       12.88000 -0.302700
H          7.62000        9.10000       13.63000 0.00070
Cl         6.90000        9.20000       11.31000 0.30060
Cl         8.42000        7.10000       12.59000 0.30060
Cl         5.91000        7.53000       13.66000 0.30060

%Mem = 2GB
%nproc=16
# b3lyp/6-31g* td 

Butadiene tddft 

0 1
C         11.96000       12.35000       10.15000 
H         11.43000       13.15000        9.64000 
C         11.16000       11.16000       10.56000 
H         11.66000       10.32000       11.04000 
C          9.83000       11.08000       10.41000 
H          9.29000       11.77000        9.76000 
H          9.27000       10.21000       10.73000 
C         13.20000       12.59000       10.46000 
H         13.73000       11.71000       10.82000 
H         13.69000       13.52000       10.17000 
  
C          6.69000       10.71000       20.35000 -0.302700
H          6.83000       11.79000       20.52000 0.00070
Cl         7.00000       10.36000       18.69000 0.30060
Cl         7.89000        9.75000       21.20000 0.30060
Cl         5.02000       10.24000       20.89000 0.30060
C         11.59000       11.34000        6.53000 -0.302700
H         11.43000       10.99000        7.55000 0.00070
Cl        10.00000       11.83000        5.85000 0.30060
Cl        12.84000       12.64000        6.53000 0.30060
Cl        12.31000       10.08000        5.54000 0.30060
C         14.52000       17.31000       17.93000 -0.302700
H         15.12000       18.15000       17.57000 0.00070
Cl        14.73000       15.92000       16.88000 0.30060
Cl        14.86000       16.88000       19.55000 0.30060
Cl        12.86000       17.92000       17.83000 0.30060
C          4.92000       12.61000       10.33000 -0.302700
H          4.45000       12.21000       11.24000 0.00070
Cl         4.02000       14.12000        9.90000 0.30060
Cl         6.66000       12.89000       10.77000 0.30060
Cl         4.89000       11.37000        9.06000 0.30060
C          7.87000        3.11000       15.51000 -0.302700
H          7.00000        3.19000       16.17000 0.00070
Cl         8.96000        2.10000       16.56000 0.30060
Cl         7.37000        2.12000       14.11000 0.30060
Cl         8.59000        4.65000       15.12000 0.30060
C          8.73000       16.01000        9.12000 -0.302700
H          8.53000       15.03000        8.69000 0.00070
Cl         9.15000       17.26000        7.98000 0.30060
Cl         7.17000       16.40000       10.13000 0.30060
Cl        10.12000       15.78000       10.15000 0.30060
C          4.77000       14.63000        5.23000 -0.302700
H          4.72000       13.70000        5.80000 0.00070
Cl         4.36000       14.32000        3.61000 0.30060
Cl         3.53000       15.59000        6.05000 0.30060
Cl         6.44000       15.21000        5.29000 0.30060
C         20.35000        8.27000        7.43000 -0.302700
H         20.23000        8.70000        8.42000 0.00070
Cl        19.34000        9.36000        6.40000 0.30060
Cl        22.00000        8.38000        6.99000 0.30060
Cl        19.65000        6.66000        7.44000 0.30060
C          7.83000       14.18000       14.63000 -0.302700
H          8.17000       15.22000       14.70000 0.00070
Cl         7.84000       13.42000       16.24000 0.30060
Cl         6.22000       14.16000       13.99000 0.30060
Cl         8.90000       13.48000       13.35000 0.30060
C         13.42000        7.56000       13.87000 -0.302700
H         14.22000        6.98000       13.42000 0.00070
Cl        11.87000        6.69000       13.44000 0.30060
Cl        13.72000        7.44000       15.66000 0.30060
Cl        13.71000        9.11000       13.11000 0.30060
C         14.94000       17.55000       10.03000 -0.302700
H         14.61000       17.90000        9.05000 0.00070
Cl        16.21000       16.30000        9.90000 0.30060
Cl        15.41000       18.96000       10.97000 0.30060
Cl        13.60000       16.79000       10.87000 0.30060
C          9.06000        1.43000        9.14000 -0.302700
H          8.87000        0.47000        9.62000 0.00070
Cl         9.57000        2.60000       10.52000 0.30060
Cl        10.38000        1.07000        8.11000 0.30060
Cl         7.55000        2.15000        8.44000 0.30060
C         17.62000       12.03000       11.92000 -0.302700
H         18.59000       12.45000       12.20000 0.00070
Cl        17.41000       10.46000       12.79000 0.30060
Cl        16.47000       13.16000       12.53000 0.30060
Cl        17.58000       11.87000       10.16000 0.30060
C         12.53000       20.68000        6.38000 -0.302700
H         12.30000       19.82000        5.76000 0.00070
Cl        12.53000       20.18000        8.11000 0.30060
Cl        14.16000       21.28000        5.94000 0.30060
Cl        11.27000       21.83000        5.73000 0.30060
C         21.16000       11.16000       16.47000 -0.302700
H         21.53000       10.17000       16.18000 0.00070
Cl        20.27000       11.25000       17.97000 0.30060
Cl        22.65000       12.18000       16.57000 0.30060
Cl        20.14000       11.73000       15.11000 0.30060
C         11.28000        4.19000        6.23000 -0.302700
H         10.47000        4.08000        6.96000 0.00070
Cl        10.57000        3.68000        4.71000 0.30060
Cl        11.58000        5.91000        6.14000 0.30060
Cl        12.69000        3.36000        6.77000 0.30060
C          4.01000        3.37000       10.13000 -0.302700
H          4.75000        3.13000        9.37000 0.00070
Cl         2.31000        3.15000        9.65000 0.30060
Cl         4.69000        2.53000       11.55000 0.30060
Cl         4.35000        5.12000       10.43000 0.30060
C         11.65000       14.22000       14.72000 -0.302700
H         11.04000       13.44000       14.25000 0.00070
Cl        11.09000       15.88000       14.45000 0.30060
Cl        11.74000       13.81000       16.50000 0.30060
Cl        13.30000       14.09000       13.98000 0.30060
C         14.07000        2.77000       12.70000 -0.302700
H         13.26000        2.05000       12.84000 0.00070
Cl        13.66000        3.45000       11.17000 0.30060
Cl        13.93000        4.04000       13.99000 0.30060
Cl        15.61000        1.85000       12.61000 0.30060
C         17.07000        9.80000       17.20000 -0.302700
H         17.78000       10.48000       16.72000 0.00070
Cl        15.45000        9.96000       16.61000 0.30060
Cl        17.68000        8.19000       16.76000 0.30060
Cl        17.20000       10.05000       18.92000 0.30060
C         13.17000       21.49000       15.63000 -0.302700
H         13.98000       20.95000       16.11000 0.00070
Cl        12.60000       20.41000       14.33000 0.30060
Cl        12.02000       21.68000       16.95000 0.30060
Cl        13.65000       23.09000       15.02000 0.30060
C         18.10000       17.44000       14.37000 -0.302700
H         18.91000       17.67000       15.06000 0.00070
Cl        18.47000       17.46000       12.59000 0.30060
Cl        17.52000       15.75000       14.73000 0.30060
Cl        16.82000       18.63000       14.73000 0.30060
C         11.74000       12.74000       21.04000 -0.302700
H         10.81000       12.17000       21.03000 0.00070
Cl        12.77000       12.35000       19.61000 0.30060
Cl        11.09000       14.37000       20.75000 0.30060
Cl        12.71000       12.69000       22.58000 0.30060
C         18.42000        3.93000       14.25000 -0.302700
H         17.82000        3.42000       15.01000 0.00070
Cl        19.08000        2.68000       13.13000 0.30060
Cl        17.25000        5.03000       13.39000 0.30060
Cl        19.72000        4.82000       15.18000 0.30060
C         13.14000       16.57000        3.68000 -0.302700
H         12.99000       16.79000        2.62000 0.00070
Cl        14.23000       17.77000        4.40000 0.30060
Cl        11.55000       16.71000        4.59000 0.30060
Cl        14.00000       15.01000        3.73000 0.30060
C         15.55000        7.66000        3.28000 -0.302700
H         15.28000        8.71000        3.41000 0.00070
Cl        14.42000        6.86000        4.41000 0.30060
Cl        15.24000        7.18000        1.58000 0.30060
Cl        17.21000        7.57000        3.79000 0.30060
C         10.11000        9.37000        2.48000 -0.302700
H         10.97000        8.72000        2.63000 0.00070
Cl         9.38000        8.83000        0.97000 0.30060
Cl         8.99000        9.20000        3.92000 0.30060
Cl        10.71000       11.02000        2.11000 0.30060
C         11.99000        4.77000       19.15000 -0.302700
H         11.66000        5.29000       20.06000 0.00070
Cl        11.66000        3.05000       19.28000 0.30060
Cl        11.29000        5.53000       17.69000 0.30060
Cl        13.80000        5.03000       18.98000 0.30060
C          3.43000        9.22000        5.68000 -0.302700
H          4.51000        9.26000        5.84000 0.00070
Cl         2.94000        8.37000        4.28000 0.30060
Cl         2.85000        8.47000        7.22000 0.30060
Cl         2.73000       10.91000        5.56000 0.30060
C          6.23000       10.92000        3.54000 -0.302700
H          6.56000        9.90000        3.31000 0.00070
Cl         7.25000       12.16000        2.72000 0.30060
Cl         4.60000       10.99000        2.84000 0.30060
Cl         6.27000       11.04000        5.29000 0.30060
C          6.30000        4.26000        3.94000 -0.302700
H          6.08000        3.56000        4.76000 0.00070
Cl         4.82000        5.17000        3.64000 0.30060
Cl         7.53000        5.46000        4.42000 0.30060
Cl         6.79000        3.31000        2.56000 0.30060
C          7.71000        7.36000        8.25000 -0.302700
H          7.32000        7.96000        9.07000 0.00070
Cl         8.49000        5.90000        8.91000 0.30060
Cl         6.20000        6.94000        7.26000 0.30060
Cl         8.90000        8.24000        7.31000 0.30060
C          2.17000        7.85000       11.64000 -0.302700
H          2.69000        6.91000       11.84000 0.00070
Cl         0.90000        7.69000       10.44000 0.30060
Cl         1.73000        8.72000       13.13000 0.30060
Cl         3.55000        8.73000       10.87000 0.30060
C         10.50000        9.03000       16.28000 -0.302700
H         11.21000        8.25000       15.99000 0.00070
Cl         8.86000        8.37000       16.25000 0.30060
Cl        10.85000        9.23000       18.00000 0.30060
Cl        10.73000       10.54000       15.43000 0.30060
C          7.85000       18.74000       14.19000 -0.302700
H          8.11000       19.77000       14.41000 0.00070
Cl         7.87000       17.80000       15.69000 0.30060
Cl         6.21000       18.84000       13.51000 0.30060
Cl         8.99000       18.29000       12.88000 0.30060
C          9.32000       19.84000        2.78000 -0.302700
H          9.05000       19.20000        1.94000 0.00070
Cl         8.18000       21.21000        3.00000 0.30060
Cl         8.99000       18.82000        4.19000 0.30060
Cl        11.06000       20.26000        2.67000 0.30060
C         14.11000        7.48000        8.67000 -0.302700
H         14.06000        6.79000        7.82000 0.00070
Cl        15.07000        8.87000        8.19000 0.30060
Cl        12.50000        8.04000        9.14000 0.30060
Cl        15.00000        6.80000       10.08000 0.30060
C         17.76000       14.43000        6.55000 -0.302700
H         18.15000       14.17000        5.57000 0.00070
Cl        19.18000       14.37000        7.66000 0.30060
Cl        17.19000       16.11000        6.37000 0.30060
Cl        16.62000       13.29000        7.22000 0.30060
C         15.44000       12.08000        3.99000 -0.302700
H         14.92000       12.79000        4.63000 0.00070
Cl        14.60000       11.50000        2.56000 0.30060
Cl        16.90000       12.84000        3.47000 0.30060
Cl        15.98000       10.65000        4.88000 0.30060
C          7.23000        8.40000       12.88000 -0.302700
H          7.62000        9.10000       13.63000 0.00070
Cl         6.90000        9.20000       11.31000 0.30060
Cl         8.42000        7.10000       12.59000 0.30060
Cl         5.91000        7.53000       13.66000 0.30060

