%Mem = 2GB
%nproc=16
# b3lyp/6-31g* td 

Butadiene tddft 

0 1
C         13.54000       12.12000       10.60000 
H         13.28000       11.63000        9.66000 
C         12.41000       12.38000       11.42000 
H         12.61000       12.99000       12.30000 
C         11.12000       11.88000       11.25000 
H         10.91000       11.17000       10.45000 
H         10.38000       12.30000       11.93000 
C         14.78000       12.38000       11.01000 
H         15.02000       12.96000       11.90000 
H         15.66000       12.06000       10.46000 
  
C         18.05000       13.43000       14.85000 -0.302700
H         18.23000       12.59000       14.16000 0.00070
Cl        16.80000       14.33000       14.10000 0.30060
Cl        17.57000       12.85000       16.42000 0.30060
Cl        19.58000       14.23000       14.71000 0.30060
C         17.75000        8.71000        5.58000 -0.302700
H         18.14000        9.04000        6.55000 0.00070
Cl        18.22000        7.07000        5.05000 0.30060
Cl        15.93000        8.61000        5.68000 0.30060
Cl        18.39000        9.99000        4.45000 0.30060
C          7.21000       14.05000       16.43000 -0.302700
H          7.16000       13.92000       15.34000 0.00070
Cl         6.11000       12.87000       17.19000 0.30060
Cl         8.78000       13.63000       17.16000 0.30060
Cl         6.78000       15.71000       16.93000 0.30060
C         17.23000       17.92000       10.95000 -0.302700
H         17.92000       17.07000       11.04000 0.00070
Cl        17.58000       18.71000        9.43000 0.30060
Cl        15.59000       17.21000       11.02000 0.30060
Cl        17.50000       19.04000       12.35000 0.30060
C         16.64000       17.07000       19.63000 -0.302700
H         16.66000       16.31000       20.42000 0.00070
Cl        17.83000       16.48000       18.49000 0.30060
Cl        14.99000       17.22000       18.97000 0.30060
Cl        17.13000       18.57000       20.40000 0.30060
C         21.66000        9.69000       13.24000 -0.302700
H         22.59000        9.25000       13.63000 0.00070
Cl        21.09000       10.84000       14.49000 0.30060
Cl        22.20000       10.50000       11.73000 0.30060
Cl        20.41000        8.45000       12.91000 0.30060
C         10.76000        9.40000       18.99000 -0.302700
H          9.88000        8.76000       18.89000 0.00070
Cl        11.22000        9.75000       20.75000 0.30060
Cl        12.17000        8.58000       18.24000 0.30060
Cl        10.60000       10.93000       18.09000 0.30060
C         11.58000        7.49000        4.46000 -0.302700
H         10.86000        8.10000        3.91000 0.00070
Cl        12.35000        8.64000        5.51000 0.30060
Cl        10.85000        6.20000        5.35000 0.30060
Cl        12.66000        6.83000        3.24000 0.30060
C         14.37000        5.60000        7.32000 -0.302700
H         13.66000        6.42000        7.45000 0.00070
Cl        13.70000        4.14000        8.11000 0.30060
Cl        14.58000        5.13000        5.58000 0.30060
Cl        15.91000        6.08000        8.18000 0.30060
C         11.47000        6.08000       13.83000 -0.302700
H         11.28000        5.91000       12.77000 0.00070
Cl        12.99000        5.25000       14.37000 0.30060
Cl        11.75000        7.79000       14.14000 0.30060
Cl        10.03000        5.48000       14.82000 0.30060
C         10.92000       18.95000       16.72000 -0.302700
H         11.62000       18.44000       16.06000 0.00070
Cl        11.43000       20.60000       17.09000 0.30060
Cl         9.26000       18.99000       15.96000 0.30060
Cl        11.17000       18.05000       18.32000 0.30060
C          4.86000        6.12000       11.31000 -0.302700
H          5.47000        6.84000       10.76000 0.00070
Cl         3.60000        5.68000       10.15000 0.30060
Cl         5.63000        4.78000       12.18000 0.30060
Cl         4.13000        7.23000       12.58000 0.30060
C         12.29000       14.00000       15.66000 -0.302700
H         11.67000       14.24000       16.53000 0.00070
Cl        14.02000       14.08000       16.08000 0.30060
Cl        11.98000       12.25000       15.19000 0.30060
Cl        11.81000       15.03000       14.31000 0.30060
C         13.37000       19.85000       12.48000 -0.302700
H         14.34000       19.47000       12.13000 0.00070
Cl        13.80000       20.78000       13.97000 0.30060
Cl        12.73000       20.86000       11.13000 0.30060
Cl        12.42000       18.38000       12.72000 0.30060
C         10.73000       11.09000        2.11000 -0.302700
H         10.17000       11.36000        3.01000 0.00070
Cl        10.22000        9.41000        1.66000 0.30060
Cl        10.57000       12.43000        0.99000 0.30060
Cl        12.40000       10.86000        2.61000 0.30060
C         14.72000       14.02000        6.18000 -0.302700
H         15.19000       14.91000        5.76000 0.00070
Cl        15.35000       13.94000        7.89000 0.30060
Cl        12.92000       14.10000        6.04000 0.30060
Cl        15.26000       12.58000        5.22000 0.30060
C          7.00000        7.79000       15.11000 -0.302700
H          6.14000        8.42000       15.35000 0.00070
Cl         8.25000        8.32000       16.30000 0.30060
Cl         6.33000        6.19000       15.53000 0.30060
Cl         7.40000        8.02000       13.32000 0.30060
C         19.09000        4.09000       10.48000 -0.302700
H         18.30000        3.81000       11.18000 0.00070
Cl        18.58000        4.07000        8.77000 0.30060
Cl        19.57000        5.78000       10.92000 0.30060
Cl        20.44000        2.96000       10.69000 0.30060
C         20.09000        7.29000       17.68000 -0.302700
H         20.94000        7.81000       18.12000 0.00070
Cl        21.06000        6.47000       16.43000 0.30060
Cl        19.36000        6.11000       18.80000 0.30060
Cl        18.96000        8.42000       16.89000 0.30060
C          4.69000       18.36000       10.55000 -0.302700
H          5.22000       19.22000       10.96000 0.00070
Cl         5.02000       18.33000        8.83000 0.30060
Cl         5.58000       16.86000       10.97000 0.30060
Cl         3.02000       18.23000       11.19000 0.30060
C          9.66000       21.11000        7.20000 -0.302700
H         10.07000       20.89000        6.21000 0.00070
Cl         9.84000       22.90000        7.54000 0.30060
Cl         7.95000       20.60000        7.44000 0.30060
Cl        10.67000       20.18000        8.29000 0.30060
C          8.57000       15.72000        8.88000 -0.302700
H          8.21000       16.29000        9.74000 0.00070
Cl        10.13000       14.93000        9.23000 0.30060
Cl         7.35000       14.52000        8.30000 0.30060
Cl         8.94000       16.82000        7.49000 0.30060
C         11.80000        1.57000       12.79000 -0.302700
H         11.62000        0.65000       12.23000 0.00070
Cl        10.36000        1.86000       13.84000 0.30060
Cl        13.18000        1.32000       13.93000 0.30060
Cl        12.02000        2.82000       11.57000 0.30060
C          6.99000       13.53000        4.16000 -0.302700
H          6.57000       14.12000        3.34000 0.00070
Cl         8.12000       14.56000        5.04000 0.30060
Cl         5.72000       12.87000        5.26000 0.30060
Cl         7.96000       12.25000        3.36000 0.30060
C         20.62000       14.65000       10.16000 -0.302700
H         21.34000       13.89000        9.84000 0.00070
Cl        21.51000       15.68000       11.34000 0.30060
Cl        19.84000       15.66000        8.91000 0.30060
Cl        19.36000       13.83000       10.98000 0.30060
C          9.33000       20.27000       11.89000 -0.302700
H         10.31000       20.21000       11.40000 0.00070
Cl         9.42000       21.12000       13.44000 0.30060
Cl         8.19000       21.11000       10.78000 0.30060
Cl         8.63000       18.69000       12.06000 0.30060
C          8.45000        6.21000        8.13000 -0.302700
H          8.78000        6.98000        7.43000 0.00070
Cl         7.63000        7.00000        9.58000 0.30060
Cl         7.37000        5.05000        7.30000 0.30060
Cl        10.07000        5.48000        8.58000 0.30060
C          4.98000       12.34000       11.84000 -0.302700
H          4.63000       12.86000       10.95000 0.00070
Cl         4.02000       10.93000       12.26000 0.30060
Cl         6.59000       11.64000       11.50000 0.30060
Cl         5.18000       13.60000       13.11000 0.30060
C         13.98000       12.07000       21.18000 -0.302700
H         13.04000       12.63000       21.23000 0.00070
Cl        14.07000       11.30000       19.55000 0.30060
Cl        15.35000       13.21000       21.33000 0.30060
Cl        13.95000       10.98000       22.57000 0.30060
C         16.23000        4.86000       14.37000 -0.302700
H         15.33000        4.47000       13.89000 0.00070
Cl        16.76000        6.25000       13.37000 0.30060
Cl        15.84000        5.14000       16.09000 0.30060
Cl        17.47000        3.62000       14.20000 0.30060
C          2.55000       11.26000        9.04000 -0.302700
H          2.54000       11.30000       10.13000 0.00070
Cl         3.52000       12.73000        8.50000 0.30060
Cl         3.36000        9.71000        8.74000 0.30060
Cl         0.96000       11.47000        8.31000 0.30060
C         12.81000        8.34000       10.00000 -0.302700
H         12.97000        9.13000       10.74000 0.00070
Cl        11.11000        8.64000        9.57000 0.30060
Cl        13.98000        8.66000        8.74000 0.30060
Cl        13.13000        6.76000       10.81000 0.30060
C         19.60000       10.08000        9.08000 -0.302700
H         20.01000       10.09000       10.09000 0.00070
Cl        19.34000        8.32000        8.72000 0.30060
Cl        18.11000       11.03000        9.02000 0.30060
Cl        20.86000       10.95000        8.11000 0.30060
C          8.83000       10.79000        6.54000 -0.302700
H          8.03000       11.51000        6.32000 0.00070
Cl        10.30000       11.84000        6.51000 0.30060
Cl         8.29000       10.29000        8.15000 0.30060
Cl         8.82000        9.59000        5.26000 0.30060

%Mem = 2GB
%nproc=16
# b3lyp/6-31g* td 

Butadiene tddft 

0 1
C         13.54000       12.12000       10.60000 
H         13.28000       11.63000        9.66000 
C         12.41000       12.38000       11.42000 
H         12.61000       12.99000       12.30000 
C         11.12000       11.88000       11.25000 
H         10.91000       11.17000       10.45000 
H         10.38000       12.30000       11.93000 
C         14.78000       12.38000       11.01000 
H         15.02000       12.96000       11.90000 
H         15.66000       12.06000       10.46000 
  
C         18.05000       13.43000       14.85000 -0.302700
H         18.23000       12.59000       14.16000 0.00070
Cl        16.80000       14.33000       14.10000 0.30060
Cl        17.57000       12.85000       16.42000 0.30060
Cl        19.58000       14.23000       14.71000 0.30060
C         17.75000        8.71000        5.58000 -0.302700
H         18.14000        9.04000        6.55000 0.00070
Cl        18.22000        7.07000        5.05000 0.30060
Cl        15.93000        8.61000        5.68000 0.30060
Cl        18.39000        9.99000        4.45000 0.30060
C          7.21000       14.05000       16.43000 -0.302700
H          7.16000       13.92000       15.34000 0.00070
Cl         6.11000       12.87000       17.19000 0.30060
Cl         8.78000       13.63000       17.16000 0.30060
Cl         6.78000       15.71000       16.93000 0.30060
C         17.23000       17.92000       10.95000 -0.302700
H         17.92000       17.07000       11.04000 0.00070
Cl        17.58000       18.71000        9.43000 0.30060
Cl        15.59000       17.21000       11.02000 0.30060
Cl        17.50000       19.04000       12.35000 0.30060
C         16.64000       17.07000       19.63000 -0.302700
H         16.66000       16.31000       20.42000 0.00070
Cl        17.83000       16.48000       18.49000 0.30060
Cl        14.99000       17.22000       18.97000 0.30060
Cl        17.13000       18.57000       20.40000 0.30060
C         21.66000        9.69000       13.24000 -0.302700
H         22.59000        9.25000       13.63000 0.00070
Cl        21.09000       10.84000       14.49000 0.30060
Cl        22.20000       10.50000       11.73000 0.30060
Cl        20.41000        8.45000       12.91000 0.30060
C         10.76000        9.40000       18.99000 -0.302700
H          9.88000        8.76000       18.89000 0.00070
Cl        11.22000        9.75000       20.75000 0.30060
Cl        12.17000        8.58000       18.24000 0.30060
Cl        10.60000       10.93000       18.09000 0.30060
C         11.58000        7.49000        4.46000 -0.302700
H         10.86000        8.10000        3.91000 0.00070
Cl        12.35000        8.64000        5.51000 0.30060
Cl        10.85000        6.20000        5.35000 0.30060
Cl        12.66000        6.83000        3.24000 0.30060
C         14.37000        5.60000        7.32000 -0.302700
H         13.66000        6.42000        7.45000 0.00070
Cl        13.70000        4.14000        8.11000 0.30060
Cl        14.58000        5.13000        5.58000 0.30060
Cl        15.91000        6.08000        8.18000 0.30060
C         11.47000        6.08000       13.83000 -0.302700
H         11.28000        5.91000       12.77000 0.00070
Cl        12.99000        5.25000       14.37000 0.30060
Cl        11.75000        7.79000       14.14000 0.30060
Cl        10.03000        5.48000       14.82000 0.30060
C         10.92000       18.95000       16.72000 -0.302700
H         11.62000       18.44000       16.06000 0.00070
Cl        11.43000       20.60000       17.09000 0.30060
Cl         9.26000       18.99000       15.96000 0.30060
Cl        11.17000       18.05000       18.32000 0.30060
C          4.86000        6.12000       11.31000 -0.302700
H          5.47000        6.84000       10.76000 0.00070
Cl         3.60000        5.68000       10.15000 0.30060
Cl         5.63000        4.78000       12.18000 0.30060
Cl         4.13000        7.23000       12.58000 0.30060
C         12.29000       14.00000       15.66000 -0.302700
H         11.67000       14.24000       16.53000 0.00070
Cl        14.02000       14.08000       16.08000 0.30060
Cl        11.98000       12.25000       15.19000 0.30060
Cl        11.81000       15.03000       14.31000 0.30060
C         13.37000       19.85000       12.48000 -0.302700
H         14.34000       19.47000       12.13000 0.00070
Cl        13.80000       20.78000       13.97000 0.30060
Cl        12.73000       20.86000       11.13000 0.30060
Cl        12.42000       18.38000       12.72000 0.30060
C         10.73000       11.09000        2.11000 -0.302700
H         10.17000       11.36000        3.01000 0.00070
Cl        10.22000        9.41000        1.66000 0.30060
Cl        10.57000       12.43000        0.99000 0.30060
Cl        12.40000       10.86000        2.61000 0.30060
C         14.72000       14.02000        6.18000 -0.302700
H         15.19000       14.91000        5.76000 0.00070
Cl        15.35000       13.94000        7.89000 0.30060
Cl        12.92000       14.10000        6.04000 0.30060
Cl        15.26000       12.58000        5.22000 0.30060
C          7.00000        7.79000       15.11000 -0.302700
H          6.14000        8.42000       15.35000 0.00070
Cl         8.25000        8.32000       16.30000 0.30060
Cl         6.33000        6.19000       15.53000 0.30060
Cl         7.40000        8.02000       13.32000 0.30060
C         19.09000        4.09000       10.48000 -0.302700
H         18.30000        3.81000       11.18000 0.00070
Cl        18.58000        4.07000        8.77000 0.30060
Cl        19.57000        5.78000       10.92000 0.30060
Cl        20.44000        2.96000       10.69000 0.30060
C         20.09000        7.29000       17.68000 -0.302700
H         20.94000        7.81000       18.12000 0.00070
Cl        21.06000        6.47000       16.43000 0.30060
Cl        19.36000        6.11000       18.80000 0.30060
Cl        18.96000        8.42000       16.89000 0.30060
C          4.69000       18.36000       10.55000 -0.302700
H          5.22000       19.22000       10.96000 0.00070
Cl         5.02000       18.33000        8.83000 0.30060
Cl         5.58000       16.86000       10.97000 0.30060
Cl         3.02000       18.23000       11.19000 0.30060
C          9.66000       21.11000        7.20000 -0.302700
H         10.07000       20.89000        6.21000 0.00070
Cl         9.84000       22.90000        7.54000 0.30060
Cl         7.95000       20.60000        7.44000 0.30060
Cl        10.67000       20.18000        8.29000 0.30060
C          8.57000       15.72000        8.88000 -0.302700
H          8.21000       16.29000        9.74000 0.00070
Cl        10.13000       14.93000        9.23000 0.30060
Cl         7.35000       14.52000        8.30000 0.30060
Cl         8.94000       16.82000        7.49000 0.30060
C         11.80000        1.57000       12.79000 -0.302700
H         11.62000        0.65000       12.23000 0.00070
Cl        10.36000        1.86000       13.84000 0.30060
Cl        13.18000        1.32000       13.93000 0.30060
Cl        12.02000        2.82000       11.57000 0.30060
C          6.99000       13.53000        4.16000 -0.302700
H          6.57000       14.12000        3.34000 0.00070
Cl         8.12000       14.56000        5.04000 0.30060
Cl         5.72000       12.87000        5.26000 0.30060
Cl         7.96000       12.25000        3.36000 0.30060
C         20.62000       14.65000       10.16000 -0.302700
H         21.34000       13.89000        9.84000 0.00070
Cl        21.51000       15.68000       11.34000 0.30060
Cl        19.84000       15.66000        8.91000 0.30060
Cl        19.36000       13.83000       10.98000 0.30060
C          9.33000       20.27000       11.89000 -0.302700
H         10.31000       20.21000       11.40000 0.00070
Cl         9.42000       21.12000       13.44000 0.30060
Cl         8.19000       21.11000       10.78000 0.30060
Cl         8.63000       18.69000       12.06000 0.30060
C          8.45000        6.21000        8.13000 -0.302700
H          8.78000        6.98000        7.43000 0.00070
Cl         7.63000        7.00000        9.58000 0.30060
Cl         7.37000        5.05000        7.30000 0.30060
Cl        10.07000        5.48000        8.58000 0.30060
C          4.98000       12.34000       11.84000 -0.302700
H          4.63000       12.86000       10.95000 0.00070
Cl         4.02000       10.93000       12.26000 0.30060
Cl         6.59000       11.64000       11.50000 0.30060
Cl         5.18000       13.60000       13.11000 0.30060
C         13.98000       12.07000       21.18000 -0.302700
H         13.04000       12.63000       21.23000 0.00070
Cl        14.07000       11.30000       19.55000 0.30060
Cl        15.35000       13.21000       21.33000 0.30060
Cl        13.95000       10.98000       22.57000 0.30060
C         16.23000        4.86000       14.37000 -0.302700
H         15.33000        4.47000       13.89000 0.00070
Cl        16.76000        6.25000       13.37000 0.30060
Cl        15.84000        5.14000       16.09000 0.30060
Cl        17.47000        3.62000       14.20000 0.30060
C          2.55000       11.26000        9.04000 -0.302700
H          2.54000       11.30000       10.13000 0.00070
Cl         3.52000       12.73000        8.50000 0.30060
Cl         3.36000        9.71000        8.74000 0.30060
Cl         0.96000       11.47000        8.31000 0.30060
C         12.81000        8.34000       10.00000 -0.302700
H         12.97000        9.13000       10.74000 0.00070
Cl        11.11000        8.64000        9.57000 0.30060
Cl        13.98000        8.66000        8.74000 0.30060
Cl        13.13000        6.76000       10.81000 0.30060
C         19.60000       10.08000        9.08000 -0.302700
H         20.01000       10.09000       10.09000 0.00070
Cl        19.34000        8.32000        8.72000 0.30060
Cl        18.11000       11.03000        9.02000 0.30060
Cl        20.86000       10.95000        8.11000 0.30060
C          8.83000       10.79000        6.54000 -0.302700
H          8.03000       11.51000        6.32000 0.00070
Cl        10.30000       11.84000        6.51000 0.30060
Cl         8.29000       10.29000        8.15000 0.30060
Cl         8.82000        9.59000        5.26000 0.30060

