%Mem = 2GB
%nproc=16
# b3lyp/6-31g* td 

Butadiene tddft 

0 1
C         12.95000       11.56000       10.68000 
H         13.30000       12.59000       10.79000 
C         12.04000       11.10000       11.78000 
H         11.53000       10.19000       11.46000 
C         11.83000       11.67000       12.99000 
H         12.22000       12.64000       13.29000 
H         11.20000       11.23000       13.76000 
C         13.35000       10.66000        9.82000 
H         12.82000        9.71000        9.78000 
H         14.11000       10.92000        9.09000 
  
C          6.70000       13.94000       10.39000 -0.302700
H          6.28000       12.94000       10.25000 0.00070
Cl         8.52000       13.82000       10.44000 0.30060
Cl         6.15000       14.85000        8.93000 0.30060
Cl         6.06000       14.63000       11.86000 0.30060
C          4.58000       19.67000       11.20000 -0.302700
H          3.81000       19.60000       10.43000 0.00070
Cl         5.60000       21.08000       10.90000 0.30060
Cl         3.74000       19.69000       12.70000 0.30060
Cl         5.55000       18.27000       11.04000 0.30060
C         18.02000       19.29000       14.00000 -0.302700
H         18.36000       18.49000       13.35000 0.00070
Cl        16.50000       19.99000       13.41000 0.30060
Cl        17.62000       18.56000       15.56000 0.30060
Cl        19.27000       20.53000       14.01000 0.30060
C         16.57000        5.53000       19.00000 -0.302700
H         15.92000        6.37000       18.75000 0.00070
Cl        16.16000        4.14000       17.97000 0.30060
Cl        18.22000        6.08000       18.42000 0.30060
Cl        16.38000        5.19000       20.75000 0.30060
C          8.84000        7.87000        1.23000 -0.302700
H          9.22000        7.56000        0.25000 0.00070
Cl        10.33000        8.33000        2.11000 0.30060
Cl         7.61000        9.16000        1.10000 0.30060
Cl         8.11000        6.46000        1.88000 0.30060
C         11.01000        3.51000        8.79000 -0.302700
H         10.97000        2.43000        8.59000 0.00070
Cl        10.40000        3.86000       10.45000 0.30060
Cl        12.70000        4.05000        8.57000 0.30060
Cl         9.85000        4.23000        7.68000 0.30060
C          7.84000        6.09000       10.73000 -0.302700
H          8.06000        5.02000       10.63000 0.00070
Cl         8.36000        6.58000       12.37000 0.30060
Cl         8.81000        6.94000        9.47000 0.30060
Cl         6.07000        6.10000       10.72000 0.30060
C         15.00000        3.29000       12.85000 -0.302700
H         15.76000        2.65000       12.42000 0.00070
Cl        14.16000        4.01000       11.46000 0.30060
Cl        13.94000        2.41000       13.96000 0.30060
Cl        16.01000        4.51000       13.75000 0.30060
C         12.16000       11.80000       22.28000 -0.302700
H         12.44000       12.72000       22.80000 0.00070
Cl        11.80000       10.57000       23.48000 0.30060
Cl        10.69000       12.03000       21.31000 0.30060
Cl        13.47000       11.27000       21.18000 0.30060
C         18.65000       12.50000       10.59000 -0.302700
H         17.57000       12.34000       10.64000 0.00070
Cl        18.98000       14.21000       11.07000 0.30060
Cl        19.42000       11.14000       11.54000 0.30060
Cl        19.13000       12.34000        8.86000 0.30060
C         13.08000        7.07000       14.55000 -0.302700
H         13.01000        6.01000       14.82000 0.00070
Cl        11.63000        7.83000       15.26000 0.30060
Cl        14.50000        7.74000       15.25000 0.30060
Cl        13.03000        7.10000       12.78000 0.30060
C         20.72000       13.95000       15.25000 -0.302700
H         20.90000       13.04000       14.66000 0.00070
Cl        20.49000       13.32000       16.94000 0.30060
Cl        22.23000       14.90000       15.17000 0.30060
Cl        19.21000       14.64000       14.68000 0.30060
C         11.86000       11.16000        4.85000 -0.302700
H         11.36000       10.39000        4.26000 0.00070
Cl        13.41000       11.56000        3.98000 0.30060
Cl        10.71000       12.51000        4.98000 0.30060
Cl        12.12000       10.34000        6.37000 0.30060
C         10.97000       14.87000        7.41000 -0.302700
H          9.96000       14.44000        7.34000 0.00070
Cl        10.73000       16.13000        8.59000 0.30060
Cl        12.03000       13.50000        7.91000 0.30060
Cl        11.43000       15.53000        5.73000 0.30060
C          2.85000        8.63000        9.49000 -0.302700
H          3.59000        7.99000        9.96000 0.00070
Cl         3.47000        9.06000        7.83000 0.30060
Cl         1.33000        7.76000        9.30000 0.30060
Cl         2.60000        9.98000       10.58000 0.30060
C          7.20000       13.28000       19.10000 -0.302700
H          6.16000       13.59000       18.99000 0.00070
Cl         7.02000       12.09000       20.46000 0.30060
Cl         7.63000       12.42000       17.61000 0.30060
Cl         8.21000       14.66000       19.63000 0.30060
C         15.58000       14.33000        6.52000 -0.302700
H         14.78000       14.79000        7.11000 0.00070
Cl        16.96000       15.47000        6.54000 0.30060
Cl        15.95000       12.71000        7.15000 0.30060
Cl        14.82000       14.33000        4.92000 0.30060
C          9.30000        8.89000       20.00000 -0.302700
H          9.63000        9.88000       20.33000 0.00070
Cl         8.80000        8.94000       18.30000 0.30060
Cl        10.62000        7.72000       20.40000 0.30060
Cl         7.87000        8.54000       20.99000 0.30060
C         14.29000       20.20000        7.76000 -0.302700
H         14.65000       21.21000        7.94000 0.00070
Cl        13.82000       19.91000        6.10000 0.30060
Cl        15.63000       19.08000        8.07000 0.30060
Cl        12.79000       19.85000        8.72000 0.30060
C          7.05000       15.86000        3.90000 -0.302700
H          6.27000       16.56000        4.17000 0.00070
Cl         8.45000       16.71000        3.31000 0.30060
Cl         7.54000       14.99000        5.37000 0.30060
Cl         6.34000       14.69000        2.69000 0.30060
C          6.28000        7.10000       17.14000 -0.302700
H          7.17000        7.20000       17.76000 0.00070
Cl         6.92000        6.49000       15.61000 0.30060
Cl         5.10000        5.88000       17.83000 0.30060
Cl         5.62000        8.77000       17.04000 0.30060
C         19.24000        9.93000        5.12000 -0.302700
H         18.30000        9.37000        5.03000 0.00070
Cl        20.26000        9.72000        3.63000 0.30060
Cl        18.82000       11.61000        5.37000 0.30060
Cl        20.15000        9.32000        6.53000 0.30060
C          5.87000        8.99000       13.15000 -0.302700
H          6.52000        8.12000       13.23000 0.00070
Cl         5.75000        9.46000       11.43000 0.30060
Cl         4.23000        8.45000       13.68000 0.30060
Cl         6.54000       10.34000       14.04000 0.30060
C         19.11000       17.55000        9.65000 -0.302700
H         18.87000       16.49000        9.60000 0.00070
Cl        19.04000       18.18000        8.01000 0.30060
Cl        17.99000       18.50000       10.56000 0.30060
Cl        20.72000       17.72000       10.26000 0.30060
C         10.17000       19.66000       12.00000 -0.302700
H         10.15000       20.43000       11.22000 0.00070
Cl         9.59000       18.16000       11.36000 0.30060
Cl        11.89000       19.39000       12.63000 0.30060
Cl         9.02000       20.20000       13.35000 0.30060
C         20.05000        3.85000       11.73000 -0.302700
H         20.43000        4.45000       12.57000 0.00070
Cl        21.31000        3.66000       10.58000 0.30060
Cl        19.37000        2.35000       12.51000 0.30060
Cl        18.85000        4.86000       10.99000 0.30060
C          7.74000       11.16000        6.44000 -0.302700
H          8.55000       11.89000        6.36000 0.00070
Cl         7.79000       10.15000        5.01000 0.30060
Cl         8.26000       10.19000        7.90000 0.30060
Cl         6.11000       11.79000        6.67000 0.30060
C         14.46000       18.02000       17.96000 -0.302700
H         15.35000       18.64000       18.14000 0.00070
Cl        13.83000       17.18000       19.37000 0.30060
Cl        13.10000       19.02000       17.24000 0.30060
Cl        14.88000       16.67000       16.76000 0.30060
C         17.72000        4.33000        6.12000 -0.302700
H         17.77000        3.49000        5.42000 0.00070
Cl        16.36000        4.04000        7.24000 0.30060
Cl        19.24000        4.25000        7.09000 0.30060
Cl        17.53000        5.85000        5.17000 0.30060
C         10.35000       15.48000       13.63000 -0.302700
H          9.52000       16.13000       13.33000 0.00070
Cl         9.52000       14.02000       14.30000 0.30060
Cl        11.36000       15.18000       12.14000 0.30060
Cl        11.07000       16.56000       14.83000 0.30060
C          9.92000       13.77000        1.66000 -0.302700
H          9.47000       14.49000        2.35000 0.00070
Cl         9.26000       14.15000        0.08000 0.30060
Cl        11.66000       14.06000        1.82000 0.30060
Cl         9.23000       12.15000        1.97000 0.30060
C         13.71000        6.08000        5.06000 -0.302700
H         14.07000        5.89000        6.07000 0.00070
Cl        11.96000        5.96000        5.13000 0.30060
Cl        14.11000        7.78000        4.50000 0.30060
Cl        14.16000        4.77000        3.95000 0.30060
C         18.36000       10.07000       16.51000 -0.302700
H         18.59000       10.86000       17.23000 0.00070
Cl        17.82000       10.98000       15.03000 0.30060
Cl        19.86000        9.10000       16.29000 0.30060
Cl        17.05000        9.09000       17.19000 0.30060
C          3.68000       12.32000       14.22000 -0.302700
H          4.12000       11.48000       13.69000 0.00070
Cl         2.59000       13.20000       13.05000 0.30060
Cl         2.85000       11.65000       15.63000 0.30060
Cl         4.98000       13.45000       14.73000 0.30060
C         12.27000       12.76000       16.81000 -0.302700
H         11.69000       12.90000       15.89000 0.00070
Cl        11.78000       11.20000       17.55000 0.30060
Cl        13.96000       12.86000       16.27000 0.30060
Cl        12.19000       14.00000       18.06000 0.30060
C          4.81000        5.99000        5.40000 -0.302700
H          3.82000        6.26000        5.78000 0.00070
Cl         5.68000        7.52000        5.08000 0.30060
Cl         5.50000        4.83000        6.50000 0.30060
Cl         4.49000        5.12000        3.85000 0.30060
C         14.72000       14.67000       12.18000 -0.302700
H         13.75000       14.18000       12.25000 0.00070
Cl        15.36000       14.55000       10.52000 0.30060
Cl        14.50000       16.33000       12.72000 0.30060
Cl        15.88000       13.71000       13.14000 0.30060
C         10.32000        3.86000       16.73000 -0.302700
H          9.96000        2.84000       16.88000 0.00070
Cl        12.11000        3.97000       16.87000 0.30060
Cl         9.58000        4.23000       15.13000 0.30060
Cl         9.56000        4.91000       17.93000 0.30060

%Mem = 2GB
%nproc=16
# b3lyp/6-31g* td 

Butadiene tddft 

0 1
C         12.95000       11.56000       10.68000 
H         13.30000       12.59000       10.79000 
C         12.04000       11.10000       11.78000 
H         11.53000       10.19000       11.46000 
C         11.83000       11.67000       12.99000 
H         12.22000       12.64000       13.29000 
H         11.20000       11.23000       13.76000 
C         13.35000       10.66000        9.82000 
H         12.82000        9.71000        9.78000 
H         14.11000       10.92000        9.09000 
  
C          6.70000       13.94000       10.39000 -0.302700
H          6.28000       12.94000       10.25000 0.00070
Cl         8.52000       13.82000       10.44000 0.30060
Cl         6.15000       14.85000        8.93000 0.30060
Cl         6.06000       14.63000       11.86000 0.30060
C          4.58000       19.67000       11.20000 -0.302700
H          3.81000       19.60000       10.43000 0.00070
Cl         5.60000       21.08000       10.90000 0.30060
Cl         3.74000       19.69000       12.70000 0.30060
Cl         5.55000       18.27000       11.04000 0.30060
C         18.02000       19.29000       14.00000 -0.302700
H         18.36000       18.49000       13.35000 0.00070
Cl        16.50000       19.99000       13.41000 0.30060
Cl        17.62000       18.56000       15.56000 0.30060
Cl        19.27000       20.53000       14.01000 0.30060
C         16.57000        5.53000       19.00000 -0.302700
H         15.92000        6.37000       18.75000 0.00070
Cl        16.16000        4.14000       17.97000 0.30060
Cl        18.22000        6.08000       18.42000 0.30060
Cl        16.38000        5.19000       20.75000 0.30060
C          8.84000        7.87000        1.23000 -0.302700
H          9.22000        7.56000        0.25000 0.00070
Cl        10.33000        8.33000        2.11000 0.30060
Cl         7.61000        9.16000        1.10000 0.30060
Cl         8.11000        6.46000        1.88000 0.30060
C         11.01000        3.51000        8.79000 -0.302700
H         10.97000        2.43000        8.59000 0.00070
Cl        10.40000        3.86000       10.45000 0.30060
Cl        12.70000        4.05000        8.57000 0.30060
Cl         9.85000        4.23000        7.68000 0.30060
C          7.84000        6.09000       10.73000 -0.302700
H          8.06000        5.02000       10.63000 0.00070
Cl         8.36000        6.58000       12.37000 0.30060
Cl         8.81000        6.94000        9.47000 0.30060
Cl         6.07000        6.10000       10.72000 0.30060
C         15.00000        3.29000       12.85000 -0.302700
H         15.76000        2.65000       12.42000 0.00070
Cl        14.16000        4.01000       11.46000 0.30060
Cl        13.94000        2.41000       13.96000 0.30060
Cl        16.01000        4.51000       13.75000 0.30060
C         12.16000       11.80000       22.28000 -0.302700
H         12.44000       12.72000       22.80000 0.00070
Cl        11.80000       10.57000       23.48000 0.30060
Cl        10.69000       12.03000       21.31000 0.30060
Cl        13.47000       11.27000       21.18000 0.30060
C         18.65000       12.50000       10.59000 -0.302700
H         17.57000       12.34000       10.64000 0.00070
Cl        18.98000       14.21000       11.07000 0.30060
Cl        19.42000       11.14000       11.54000 0.30060
Cl        19.13000       12.34000        8.86000 0.30060
C         13.08000        7.07000       14.55000 -0.302700
H         13.01000        6.01000       14.82000 0.00070
Cl        11.63000        7.83000       15.26000 0.30060
Cl        14.50000        7.74000       15.25000 0.30060
Cl        13.03000        7.10000       12.78000 0.30060
C         20.72000       13.95000       15.25000 -0.302700
H         20.90000       13.04000       14.66000 0.00070
Cl        20.49000       13.32000       16.94000 0.30060
Cl        22.23000       14.90000       15.17000 0.30060
Cl        19.21000       14.64000       14.68000 0.30060
C         11.86000       11.16000        4.85000 -0.302700
H         11.36000       10.39000        4.26000 0.00070
Cl        13.41000       11.56000        3.98000 0.30060
Cl        10.71000       12.51000        4.98000 0.30060
Cl        12.12000       10.34000        6.37000 0.30060
C         10.97000       14.87000        7.41000 -0.302700
H          9.96000       14.44000        7.34000 0.00070
Cl        10.73000       16.13000        8.59000 0.30060
Cl        12.03000       13.50000        7.91000 0.30060
Cl        11.43000       15.53000        5.73000 0.30060
C          2.85000        8.63000        9.49000 -0.302700
H          3.59000        7.99000        9.96000 0.00070
Cl         3.47000        9.06000        7.83000 0.30060
Cl         1.33000        7.76000        9.30000 0.30060
Cl         2.60000        9.98000       10.58000 0.30060
C          7.20000       13.28000       19.10000 -0.302700
H          6.16000       13.59000       18.99000 0.00070
Cl         7.02000       12.09000       20.46000 0.30060
Cl         7.63000       12.42000       17.61000 0.30060
Cl         8.21000       14.66000       19.63000 0.30060
C         15.58000       14.33000        6.52000 -0.302700
H         14.78000       14.79000        7.11000 0.00070
Cl        16.96000       15.47000        6.54000 0.30060
Cl        15.95000       12.71000        7.15000 0.30060
Cl        14.82000       14.33000        4.92000 0.30060
C          9.30000        8.89000       20.00000 -0.302700
H          9.63000        9.88000       20.33000 0.00070
Cl         8.80000        8.94000       18.30000 0.30060
Cl        10.62000        7.72000       20.40000 0.30060
Cl         7.87000        8.54000       20.99000 0.30060
C         14.29000       20.20000        7.76000 -0.302700
H         14.65000       21.21000        7.94000 0.00070
Cl        13.82000       19.91000        6.10000 0.30060
Cl        15.63000       19.08000        8.07000 0.30060
Cl        12.79000       19.85000        8.72000 0.30060
C          7.05000       15.86000        3.90000 -0.302700
H          6.27000       16.56000        4.17000 0.00070
Cl         8.45000       16.71000        3.31000 0.30060
Cl         7.54000       14.99000        5.37000 0.30060
Cl         6.34000       14.69000        2.69000 0.30060
C          6.28000        7.10000       17.14000 -0.302700
H          7.17000        7.20000       17.76000 0.00070
Cl         6.92000        6.49000       15.61000 0.30060
Cl         5.10000        5.88000       17.83000 0.30060
Cl         5.62000        8.77000       17.04000 0.30060
C         19.24000        9.93000        5.12000 -0.302700
H         18.30000        9.37000        5.03000 0.00070
Cl        20.26000        9.72000        3.63000 0.30060
Cl        18.82000       11.61000        5.37000 0.30060
Cl        20.15000        9.32000        6.53000 0.30060
C          5.87000        8.99000       13.15000 -0.302700
H          6.52000        8.12000       13.23000 0.00070
Cl         5.75000        9.46000       11.43000 0.30060
Cl         4.23000        8.45000       13.68000 0.30060
Cl         6.54000       10.34000       14.04000 0.30060
C         19.11000       17.55000        9.65000 -0.302700
H         18.87000       16.49000        9.60000 0.00070
Cl        19.04000       18.18000        8.01000 0.30060
Cl        17.99000       18.50000       10.56000 0.30060
Cl        20.72000       17.72000       10.26000 0.30060
C         10.17000       19.66000       12.00000 -0.302700
H         10.15000       20.43000       11.22000 0.00070
Cl         9.59000       18.16000       11.36000 0.30060
Cl        11.89000       19.39000       12.63000 0.30060
Cl         9.02000       20.20000       13.35000 0.30060
C         20.05000        3.85000       11.73000 -0.302700
H         20.43000        4.45000       12.57000 0.00070
Cl        21.31000        3.66000       10.58000 0.30060
Cl        19.37000        2.35000       12.51000 0.30060
Cl        18.85000        4.86000       10.99000 0.30060
C          7.74000       11.16000        6.44000 -0.302700
H          8.55000       11.89000        6.36000 0.00070
Cl         7.79000       10.15000        5.01000 0.30060
Cl         8.26000       10.19000        7.90000 0.30060
Cl         6.11000       11.79000        6.67000 0.30060
C         14.46000       18.02000       17.96000 -0.302700
H         15.35000       18.64000       18.14000 0.00070
Cl        13.83000       17.18000       19.37000 0.30060
Cl        13.10000       19.02000       17.24000 0.30060
Cl        14.88000       16.67000       16.76000 0.30060
C         17.72000        4.33000        6.12000 -0.302700
H         17.77000        3.49000        5.42000 0.00070
Cl        16.36000        4.04000        7.24000 0.30060
Cl        19.24000        4.25000        7.09000 0.30060
Cl        17.53000        5.85000        5.17000 0.30060
C         10.35000       15.48000       13.63000 -0.302700
H          9.52000       16.13000       13.33000 0.00070
Cl         9.52000       14.02000       14.30000 0.30060
Cl        11.36000       15.18000       12.14000 0.30060
Cl        11.07000       16.56000       14.83000 0.30060
C          9.92000       13.77000        1.66000 -0.302700
H          9.47000       14.49000        2.35000 0.00070
Cl         9.26000       14.15000        0.08000 0.30060
Cl        11.66000       14.06000        1.82000 0.30060
Cl         9.23000       12.15000        1.97000 0.30060
C         13.71000        6.08000        5.06000 -0.302700
H         14.07000        5.89000        6.07000 0.00070
Cl        11.96000        5.96000        5.13000 0.30060
Cl        14.11000        7.78000        4.50000 0.30060
Cl        14.16000        4.77000        3.95000 0.30060
C         18.36000       10.07000       16.51000 -0.302700
H         18.59000       10.86000       17.23000 0.00070
Cl        17.82000       10.98000       15.03000 0.30060
Cl        19.86000        9.10000       16.29000 0.30060
Cl        17.05000        9.09000       17.19000 0.30060
C          3.68000       12.32000       14.22000 -0.302700
H          4.12000       11.48000       13.69000 0.00070
Cl         2.59000       13.20000       13.05000 0.30060
Cl         2.85000       11.65000       15.63000 0.30060
Cl         4.98000       13.45000       14.73000 0.30060
C         12.27000       12.76000       16.81000 -0.302700
H         11.69000       12.90000       15.89000 0.00070
Cl        11.78000       11.20000       17.55000 0.30060
Cl        13.96000       12.86000       16.27000 0.30060
Cl        12.19000       14.00000       18.06000 0.30060
C          4.81000        5.99000        5.40000 -0.302700
H          3.82000        6.26000        5.78000 0.00070
Cl         5.68000        7.52000        5.08000 0.30060
Cl         5.50000        4.83000        6.50000 0.30060
Cl         4.49000        5.12000        3.85000 0.30060
C         14.72000       14.67000       12.18000 -0.302700
H         13.75000       14.18000       12.25000 0.00070
Cl        15.36000       14.55000       10.52000 0.30060
Cl        14.50000       16.33000       12.72000 0.30060
Cl        15.88000       13.71000       13.14000 0.30060
C         10.32000        3.86000       16.73000 -0.302700
H          9.96000        2.84000       16.88000 0.00070
Cl        12.11000        3.97000       16.87000 0.30060
Cl         9.58000        4.23000       15.13000 0.30060
Cl         9.56000        4.91000       17.93000 0.30060

