%Mem = 2GB
%nproc=16
# b3lyp/6-31g* td 

Butadiene tddft 

0 1
C         12.18000       13.11000       11.45000 
H         13.15000       12.76000       11.08000 
C         11.91000       12.53000       12.74000 
H         10.97000       12.84000       13.20000 
C         12.69000       11.66000       13.35000 
H         13.56000       11.11000       12.98000 
H         12.43000       11.34000       14.36000 
C         11.29000       13.74000       10.63000 
H         10.27000       13.98000       10.93000 
H         11.43000       14.09000        9.61000 
  
C          3.88000       16.47000       10.36000 -0.302700
H          3.31000       16.89000        9.53000 0.00070
Cl         5.53000       16.61000        9.71000 0.30060
Cl         3.57000       17.50000       11.81000 0.30060
Cl         3.64000       14.76000       10.73000 0.30060
C         21.01000       12.58000       12.18000 -0.302700
H         22.00000       12.19000       11.90000 0.00070
Cl        19.79000       11.65000       11.36000 0.30060
Cl        21.17000       12.47000       13.93000 0.30060
Cl        21.03000       14.35000       11.69000 0.30060
C         16.90000       19.69000       15.73000 -0.302700
H         17.60000       18.86000       15.89000 0.00070
Cl        15.48000       19.03000       14.80000 0.30060
Cl        16.48000       20.30000       17.37000 0.30060
Cl        17.67000       20.85000       14.66000 0.30060
C          6.84000        8.81000        4.23000 -0.302700
H          5.76000        8.81000        4.39000 0.00070
Cl         7.11000        9.24000        2.51000 0.30060
Cl         7.37000       10.04000        5.36000 0.30060
Cl         7.50000        7.23000        4.82000 0.30060
C          9.89000        2.03000       10.15000 -0.302700
H         10.73000        1.36000       10.32000 0.00070
Cl        10.19000        3.60000       11.01000 0.30060
Cl         9.96000        2.23000        8.44000 0.30060
Cl         8.54000        1.11000       10.74000 0.30060
C          6.83000        5.61000       12.64000 -0.302700
H          7.58000        4.82000       12.73000 0.00070
Cl         6.33000        6.18000       14.24000 0.30060
Cl         7.47000        6.94000       11.62000 0.30060
Cl         5.35000        4.83000       11.96000 0.30060
C         14.75000        8.05000       15.57000 -0.302700
H         15.64000        8.30000       14.99000 0.00070
Cl        13.43000        8.23000       14.31000 0.30060
Cl        14.93000        6.39000       16.35000 0.30060
Cl        14.64000        9.32000       16.80000 0.30060
C         16.19000       12.98000       14.21000 -0.302700
H         15.36000       13.66000       13.99000 0.00070
Cl        17.61000       14.08000       14.03000 0.30060
Cl        16.11000       12.34000       15.84000 0.30060
Cl        16.03000       11.79000       12.92000 0.30060
C          9.21000        9.95000       13.81000 -0.302700
H          8.39000        9.31000       14.13000 0.00070
Cl         8.37000       11.45000       13.42000 0.30060
Cl        10.06000       10.15000       15.35000 0.30060
Cl        10.05000        9.14000       12.50000 0.30060
C         18.03000       13.90000       20.83000 -0.302700
H         17.71000       12.96000       21.28000 0.00070
Cl        18.47000       15.12000       22.06000 0.30060
Cl        19.27000       13.65000       19.64000 0.30060
Cl        16.59000       14.39000       19.89000 0.30060
C         12.98000        9.54000        8.43000 -0.302700
H         12.45000        8.66000        8.03000 0.00070
Cl        14.48000        9.70000        7.40000 0.30060
Cl        11.87000       10.90000        8.44000 0.30060
Cl        13.34000        9.37000       10.21000 0.30060
C         14.59000       19.65000        4.28000 -0.302700
H         14.83000       20.59000        4.79000 0.00070
Cl        14.30000       19.86000        2.51000 0.30060
Cl        16.00000       18.65000        4.60000 0.30060
Cl        13.00000       19.20000        5.06000 0.30060
C         10.18000       17.72000        9.23000 -0.302700
H          9.26000       17.19000        8.97000 0.00070
Cl         9.71000       19.41000        9.57000 0.30060
Cl        11.03000       16.98000       10.69000 0.30060
Cl        11.26000       17.57000        7.88000 0.30060
C          6.67000       15.05000       19.84000 -0.302700
H          6.18000       16.03000       19.83000 0.00070
Cl         7.67000       14.75000       21.22000 0.30060
Cl         5.32000       13.93000       20.05000 0.30060
Cl         7.61000       14.87000       18.29000 0.30060
C         16.01000       14.43000        9.74000 -0.302700
H         16.29000       14.32000       10.79000 0.00070
Cl        15.30000       12.81000        9.34000 0.30060
Cl        14.84000       15.84000        9.54000 0.30060
Cl        17.47000       14.59000        8.83000 0.30060
C         14.74000       21.49000        8.54000 -0.302700
H         15.60000       21.58000        9.20000 0.00070
Cl        15.19000       22.44000        7.14000 0.30060
Cl        14.43000       19.81000        7.99000 0.30060
Cl        13.38000       22.23000        9.50000 0.30060
C         15.02000        9.72000        2.73000 -0.302700
H         15.68000       10.58000        2.89000 0.00070
Cl        14.94000        9.14000        1.08000 0.30060
Cl        15.66000        8.46000        3.69000 0.30060
Cl        13.51000       10.27000        3.35000 0.30060
C          6.99000       18.66000        5.38000 -0.302700
H          7.05000       19.75000        5.44000 0.00070
Cl         6.94000       18.18000        3.64000 0.30060
Cl         8.48000       17.91000        6.01000 0.30060
Cl         5.57000       18.13000        6.32000 0.30060
C          5.81000        8.57000       17.70000 -0.302700
H          6.39000        8.61000       18.63000 0.00070
Cl         7.01000        8.90000       16.48000 0.30060
Cl         5.06000        6.90000       17.48000 0.30060
Cl         4.67000        9.90000       17.64000 0.30060
C         14.33000       15.14000        4.96000 -0.302700
H         14.78000       15.98000        5.50000 0.00070
Cl        12.56000       15.20000        5.44000 0.30060
Cl        14.54000       15.32000        3.18000 0.30060
Cl        15.16000       13.67000        5.57000 0.30060
C         19.29000       10.85000        6.41000 -0.302700
H         20.21000       11.43000        6.50000 0.00070
Cl        18.59000       11.21000        4.79000 0.30060
Cl        19.55000        9.11000        6.63000 0.30060
Cl        18.22000       11.49000        7.64000 0.30060
C          5.18000        9.97000       12.00000 -0.302700
H          6.12000        9.57000       11.63000 0.00070
Cl         3.77000        9.29000       11.10000 0.30060
Cl         5.08000        9.45000       13.69000 0.30060
Cl         5.28000       11.75000       11.87000 0.30060
C         19.95000       14.73000        6.36000 -0.302700
H         19.45000       13.97000        6.97000 0.00070
Cl        20.87000       13.82000        5.19000 0.30060
Cl        18.65000       15.66000        5.54000 0.30060
Cl        21.05000       15.65000        7.44000 0.30060
C         17.16000       18.67000       10.55000 -0.302700
H         16.14000       18.26000       10.56000 0.00070
Cl        17.49000       18.86000        8.81000 0.30060
Cl        17.39000       20.21000       11.40000 0.30060
Cl        18.21000       17.36000       11.08000 0.30060
C         18.82000        7.22000       13.77000 -0.302700
H         19.51000        6.57000       14.31000 0.00070
Cl        19.54000        7.34000       12.05000 0.30060
Cl        17.24000        6.41000       13.67000 0.30060
Cl        18.74000        8.77000       14.67000 0.30060
C          7.21000       11.77000        8.60000 -0.302700
H          7.02000       12.10000        9.62000 0.00070
Cl         8.09000       13.06000        7.77000 0.30060
Cl         8.04000       10.15000        9.00000 0.30060
Cl         5.65000       11.49000        7.78000 0.30060
C         20.09000       17.34000       17.65000 -0.302700
H         20.91000       16.91000       18.23000 0.00070
Cl        18.67000       17.69000       18.70000 0.30060
Cl        20.66000       18.79000       16.68000 0.30060
Cl        19.57000       16.20000       16.37000 0.30060
C         12.60000       18.33000       18.90000 -0.302700
H         12.47000       19.05000       19.71000 0.00070
Cl        11.10000       17.40000       18.75000 0.30060
Cl        12.82000       19.21000       17.31000 0.30060
Cl        13.86000       17.09000       19.04000 0.30060
C         15.99000        6.61000        9.96000 -0.302700
H         15.64000        6.65000        8.93000 0.00070
Cl        14.53000        6.37000       11.02000 0.30060
Cl        16.95000        5.06000       10.19000 0.30060
Cl        16.93000        8.06000       10.41000 0.30060
C          7.86000       15.65000       14.50000 -0.302700
H          7.25000       14.76000       14.63000 0.00070
Cl         9.43000       15.50000       15.32000 0.30060
Cl         8.24000       15.81000       12.77000 0.30060
Cl         6.99000       17.18000       14.98000 0.30060
C          2.80000       15.26000        6.05000 -0.302700
H          2.22000       14.39000        5.72000 0.00070
Cl         1.85000       15.90000        7.35000 0.30060
Cl         4.32000       14.49000        6.63000 0.30060
Cl         3.10000       16.41000        4.64000 0.30060
C          6.32000       14.05000        3.32000 -0.302700
H          5.59000       14.81000        3.64000 0.00070
Cl         6.89000       14.58000        1.67000 0.30060
Cl         7.82000       14.09000        4.38000 0.30060
Cl         5.51000       12.47000        3.13000 0.30060
C         10.92000        7.10000        6.50000 -0.302700
H         10.38000        6.50000        5.77000 0.00070
Cl        10.93000        8.69000        5.63000 0.30060
Cl         9.96000        7.24000        8.00000 0.30060
Cl        12.59000        6.47000        6.70000 0.30060
C         15.46000       10.82000       20.79000 -0.302700
H         14.83000       11.50000       20.22000 0.00070
Cl        17.00000       10.76000       19.86000 0.30060
Cl        15.69000       11.45000       22.47000 0.30060
Cl        14.57000        9.34000       20.81000 0.30060
C          3.16000       13.00000       15.05000 -0.302700
H          3.34000       12.06000       14.53000 0.00070
Cl         1.55000       13.57000       14.55000 0.30060
Cl         3.11000       12.78000       16.79000 0.30060
Cl         4.41000       14.16000       14.59000 0.30060
C         12.27000       13.50000       19.17000 -0.302700
H         12.20000       14.53000       18.81000 0.00070
Cl        13.05000       12.37000       18.03000 0.30060
Cl        13.18000       13.43000       20.70000 0.30060
Cl        10.52000       13.09000       19.46000 0.30060
C          3.85000        7.67000        8.09000 -0.302700
H          3.67000        8.44000        8.84000 0.00070
Cl         5.63000        7.33000        7.99000 0.30060
Cl         2.93000        6.23000        8.57000 0.30060
Cl         3.27000        8.61000        6.63000 0.30060
C         12.82000       15.96000       14.02000 -0.302700
H         12.03000       15.30000       13.65000 0.00070
Cl        14.31000       15.75000       13.05000 0.30060
Cl        12.39000       17.69000       14.18000 0.30060
Cl        13.15000       15.32000       15.62000 0.30060
C         10.02000        6.59000       16.85000 -0.302700
H          9.52000        7.55000       16.95000 0.00070
Cl         8.87000        5.30000       17.18000 0.30060
Cl        10.51000        6.29000       15.16000 0.30060
Cl        11.37000        6.40000       17.96000 0.30060

%Mem = 2GB
%nproc=16
# b3lyp/6-31g* td 

Butadiene tddft 

0 1
C         12.18000       13.11000       11.45000 
H         13.15000       12.76000       11.08000 
C         11.91000       12.53000       12.74000 
H         10.97000       12.84000       13.20000 
C         12.69000       11.66000       13.35000 
H         13.56000       11.11000       12.98000 
H         12.43000       11.34000       14.36000 
C         11.29000       13.74000       10.63000 
H         10.27000       13.98000       10.93000 
H         11.43000       14.09000        9.61000 
  
C          3.88000       16.47000       10.36000 -0.302700
H          3.31000       16.89000        9.53000 0.00070
Cl         5.53000       16.61000        9.71000 0.30060
Cl         3.57000       17.50000       11.81000 0.30060
Cl         3.64000       14.76000       10.73000 0.30060
C         21.01000       12.58000       12.18000 -0.302700
H         22.00000       12.19000       11.90000 0.00070
Cl        19.79000       11.65000       11.36000 0.30060
Cl        21.17000       12.47000       13.93000 0.30060
Cl        21.03000       14.35000       11.69000 0.30060
C         16.90000       19.69000       15.73000 -0.302700
H         17.60000       18.86000       15.89000 0.00070
Cl        15.48000       19.03000       14.80000 0.30060
Cl        16.48000       20.30000       17.37000 0.30060
Cl        17.67000       20.85000       14.66000 0.30060
C          6.84000        8.81000        4.23000 -0.302700
H          5.76000        8.81000        4.39000 0.00070
Cl         7.11000        9.24000        2.51000 0.30060
Cl         7.37000       10.04000        5.36000 0.30060
Cl         7.50000        7.23000        4.82000 0.30060
C          9.89000        2.03000       10.15000 -0.302700
H         10.73000        1.36000       10.32000 0.00070
Cl        10.19000        3.60000       11.01000 0.30060
Cl         9.96000        2.23000        8.44000 0.30060
Cl         8.54000        1.11000       10.74000 0.30060
C          6.83000        5.61000       12.64000 -0.302700
H          7.58000        4.82000       12.73000 0.00070
Cl         6.33000        6.18000       14.24000 0.30060
Cl         7.47000        6.94000       11.62000 0.30060
Cl         5.35000        4.83000       11.96000 0.30060
C         14.75000        8.05000       15.57000 -0.302700
H         15.64000        8.30000       14.99000 0.00070
Cl        13.43000        8.23000       14.31000 0.30060
Cl        14.93000        6.39000       16.35000 0.30060
Cl        14.64000        9.32000       16.80000 0.30060
C         16.19000       12.98000       14.21000 -0.302700
H         15.36000       13.66000       13.99000 0.00070
Cl        17.61000       14.08000       14.03000 0.30060
Cl        16.11000       12.34000       15.84000 0.30060
Cl        16.03000       11.79000       12.92000 0.30060
C          9.21000        9.95000       13.81000 -0.302700
H          8.39000        9.31000       14.13000 0.00070
Cl         8.37000       11.45000       13.42000 0.30060
Cl        10.06000       10.15000       15.35000 0.30060
Cl        10.05000        9.14000       12.50000 0.30060
C         18.03000       13.90000       20.83000 -0.302700
H         17.71000       12.96000       21.28000 0.00070
Cl        18.47000       15.12000       22.06000 0.30060
Cl        19.27000       13.65000       19.64000 0.30060
Cl        16.59000       14.39000       19.89000 0.30060
C         12.98000        9.54000        8.43000 -0.302700
H         12.45000        8.66000        8.03000 0.00070
Cl        14.48000        9.70000        7.40000 0.30060
Cl        11.87000       10.90000        8.44000 0.30060
Cl        13.34000        9.37000       10.21000 0.30060
C         14.59000       19.65000        4.28000 -0.302700
H         14.83000       20.59000        4.79000 0.00070
Cl        14.30000       19.86000        2.51000 0.30060
Cl        16.00000       18.65000        4.60000 0.30060
Cl        13.00000       19.20000        5.06000 0.30060
C         10.18000       17.72000        9.23000 -0.302700
H          9.26000       17.19000        8.97000 0.00070
Cl         9.71000       19.41000        9.57000 0.30060
Cl        11.03000       16.98000       10.69000 0.30060
Cl        11.26000       17.57000        7.88000 0.30060
C          6.67000       15.05000       19.84000 -0.302700
H          6.18000       16.03000       19.83000 0.00070
Cl         7.67000       14.75000       21.22000 0.30060
Cl         5.32000       13.93000       20.05000 0.30060
Cl         7.61000       14.87000       18.29000 0.30060
C         16.01000       14.43000        9.74000 -0.302700
H         16.29000       14.32000       10.79000 0.00070
Cl        15.30000       12.81000        9.34000 0.30060
Cl        14.84000       15.84000        9.54000 0.30060
Cl        17.47000       14.59000        8.83000 0.30060
C         14.74000       21.49000        8.54000 -0.302700
H         15.60000       21.58000        9.20000 0.00070
Cl        15.19000       22.44000        7.14000 0.30060
Cl        14.43000       19.81000        7.99000 0.30060
Cl        13.38000       22.23000        9.50000 0.30060
C         15.02000        9.72000        2.73000 -0.302700
H         15.68000       10.58000        2.89000 0.00070
Cl        14.94000        9.14000        1.08000 0.30060
Cl        15.66000        8.46000        3.69000 0.30060
Cl        13.51000       10.27000        3.35000 0.30060
C          6.99000       18.66000        5.38000 -0.302700
H          7.05000       19.75000        5.44000 0.00070
Cl         6.94000       18.18000        3.64000 0.30060
Cl         8.48000       17.91000        6.01000 0.30060
Cl         5.57000       18.13000        6.32000 0.30060
C          5.81000        8.57000       17.70000 -0.302700
H          6.39000        8.61000       18.63000 0.00070
Cl         7.01000        8.90000       16.48000 0.30060
Cl         5.06000        6.90000       17.48000 0.30060
Cl         4.67000        9.90000       17.64000 0.30060
C         14.33000       15.14000        4.96000 -0.302700
H         14.78000       15.98000        5.50000 0.00070
Cl        12.56000       15.20000        5.44000 0.30060
Cl        14.54000       15.32000        3.18000 0.30060
Cl        15.16000       13.67000        5.57000 0.30060
C         19.29000       10.85000        6.41000 -0.302700
H         20.21000       11.43000        6.50000 0.00070
Cl        18.59000       11.21000        4.79000 0.30060
Cl        19.55000        9.11000        6.63000 0.30060
Cl        18.22000       11.49000        7.64000 0.30060
C          5.18000        9.97000       12.00000 -0.302700
H          6.12000        9.57000       11.63000 0.00070
Cl         3.77000        9.29000       11.10000 0.30060
Cl         5.08000        9.45000       13.69000 0.30060
Cl         5.28000       11.75000       11.87000 0.30060
C         19.95000       14.73000        6.36000 -0.302700
H         19.45000       13.97000        6.97000 0.00070
Cl        20.87000       13.82000        5.19000 0.30060
Cl        18.65000       15.66000        5.54000 0.30060
Cl        21.05000       15.65000        7.44000 0.30060
C         17.16000       18.67000       10.55000 -0.302700
H         16.14000       18.26000       10.56000 0.00070
Cl        17.49000       18.86000        8.81000 0.30060
Cl        17.39000       20.21000       11.40000 0.30060
Cl        18.21000       17.36000       11.08000 0.30060
C         18.82000        7.22000       13.77000 -0.302700
H         19.51000        6.57000       14.31000 0.00070
Cl        19.54000        7.34000       12.05000 0.30060
Cl        17.24000        6.41000       13.67000 0.30060
Cl        18.74000        8.77000       14.67000 0.30060
C          7.21000       11.77000        8.60000 -0.302700
H          7.02000       12.10000        9.62000 0.00070
Cl         8.09000       13.06000        7.77000 0.30060
Cl         8.04000       10.15000        9.00000 0.30060
Cl         5.65000       11.49000        7.78000 0.30060
C         20.09000       17.34000       17.65000 -0.302700
H         20.91000       16.91000       18.23000 0.00070
Cl        18.67000       17.69000       18.70000 0.30060
Cl        20.66000       18.79000       16.68000 0.30060
Cl        19.57000       16.20000       16.37000 0.30060
C         12.60000       18.33000       18.90000 -0.302700
H         12.47000       19.05000       19.71000 0.00070
Cl        11.10000       17.40000       18.75000 0.30060
Cl        12.82000       19.21000       17.31000 0.30060
Cl        13.86000       17.09000       19.04000 0.30060
C         15.99000        6.61000        9.96000 -0.302700
H         15.64000        6.65000        8.93000 0.00070
Cl        14.53000        6.37000       11.02000 0.30060
Cl        16.95000        5.06000       10.19000 0.30060
Cl        16.93000        8.06000       10.41000 0.30060
C          7.86000       15.65000       14.50000 -0.302700
H          7.25000       14.76000       14.63000 0.00070
Cl         9.43000       15.50000       15.32000 0.30060
Cl         8.24000       15.81000       12.77000 0.30060
Cl         6.99000       17.18000       14.98000 0.30060
C          2.80000       15.26000        6.05000 -0.302700
H          2.22000       14.39000        5.72000 0.00070
Cl         1.85000       15.90000        7.35000 0.30060
Cl         4.32000       14.49000        6.63000 0.30060
Cl         3.10000       16.41000        4.64000 0.30060
C          6.32000       14.05000        3.32000 -0.302700
H          5.59000       14.81000        3.64000 0.00070
Cl         6.89000       14.58000        1.67000 0.30060
Cl         7.82000       14.09000        4.38000 0.30060
Cl         5.51000       12.47000        3.13000 0.30060
C         10.92000        7.10000        6.50000 -0.302700
H         10.38000        6.50000        5.77000 0.00070
Cl        10.93000        8.69000        5.63000 0.30060
Cl         9.96000        7.24000        8.00000 0.30060
Cl        12.59000        6.47000        6.70000 0.30060
C         15.46000       10.82000       20.79000 -0.302700
H         14.83000       11.50000       20.22000 0.00070
Cl        17.00000       10.76000       19.86000 0.30060
Cl        15.69000       11.45000       22.47000 0.30060
Cl        14.57000        9.34000       20.81000 0.30060
C          3.16000       13.00000       15.05000 -0.302700
H          3.34000       12.06000       14.53000 0.00070
Cl         1.55000       13.57000       14.55000 0.30060
Cl         3.11000       12.78000       16.79000 0.30060
Cl         4.41000       14.16000       14.59000 0.30060
C         12.27000       13.50000       19.17000 -0.302700
H         12.20000       14.53000       18.81000 0.00070
Cl        13.05000       12.37000       18.03000 0.30060
Cl        13.18000       13.43000       20.70000 0.30060
Cl        10.52000       13.09000       19.46000 0.30060
C          3.85000        7.67000        8.09000 -0.302700
H          3.67000        8.44000        8.84000 0.00070
Cl         5.63000        7.33000        7.99000 0.30060
Cl         2.93000        6.23000        8.57000 0.30060
Cl         3.27000        8.61000        6.63000 0.30060
C         12.82000       15.96000       14.02000 -0.302700
H         12.03000       15.30000       13.65000 0.00070
Cl        14.31000       15.75000       13.05000 0.30060
Cl        12.39000       17.69000       14.18000 0.30060
Cl        13.15000       15.32000       15.62000 0.30060
C         10.02000        6.59000       16.85000 -0.302700
H          9.52000        7.55000       16.95000 0.00070
Cl         8.87000        5.30000       17.18000 0.30060
Cl        10.51000        6.29000       15.16000 0.30060
Cl        11.37000        6.40000       17.96000 0.30060

