%Mem = 2GB
%nproc=16
# b3lyp/6-31g* td 

Butadiene tddft 

0 1
C         10.36000       10.90000       11.33000 
H          9.27000       10.95000       11.35000 
C         10.93000       11.47000       12.56000 
H         11.96000       11.27000       12.85000 
C         10.30000       12.45000       13.24000 
H          9.29000       12.77000       13.02000 
H         10.73000       12.97000       14.09000 
C         10.97000       10.33000       10.31000 
H         12.04000       10.50000       10.14000 
H         10.38000        9.92000        9.50000 
  
C          7.97000        6.60000        9.92000 -0.302700
H          7.77000        5.99000       10.81000 0.00070
Cl         9.68000        6.32000        9.44000 0.30060
Cl         6.73000        6.19000        8.75000 0.30060
Cl         7.73000        8.33000       10.43000 0.30060
C          2.64000       16.24000       14.99000 -0.302700
H          2.34000       15.42000       15.65000 0.00070
Cl         4.36000       16.07000       15.14000 0.30060
Cl         1.99000       16.13000       13.37000 0.30060
Cl         2.18000       17.77000       15.70000 0.30060
C          2.26000       12.37000       17.45000 -0.302700
H          3.26000       11.94000       17.51000 0.00070
Cl         2.27000       13.74000       18.66000 0.30060
Cl         2.10000       12.93000       15.74000 0.30060
Cl         1.07000       11.08000       17.83000 0.30060
C         16.07000       14.85000       16.03000 -0.302700
H         15.47000       14.13000       15.47000 0.00070
Cl        16.68000       14.16000       17.59000 0.30060
Cl        17.49000       15.26000       15.11000 0.30060
Cl        14.90000       16.22000       16.31000 0.30060
C          8.06000       18.97000       16.91000 -0.302700
H          7.61000       18.63000       17.85000 0.00070
Cl         6.60000       19.19000       15.86000 0.30060
Cl         8.68000       20.69000       17.17000 0.30060
Cl         9.19000       17.96000       16.03000 0.30060
C         14.79000       14.86000        7.19000 -0.302700
H         13.71000       14.81000        7.03000 0.00070
Cl        15.29000       16.57000        7.18000 0.30060
Cl        14.97000       14.06000        8.78000 0.30060
Cl        15.48000       14.04000        5.78000 0.30060
C         16.86000        8.38000       11.08000 -0.302700
H         16.13000        7.57000       11.01000 0.00070
Cl        18.21000        7.90000       10.02000 0.30060
Cl        16.05000        9.87000       10.49000 0.30060
Cl        17.52000        8.64000       12.75000 0.30060
C          6.59000       12.36000       19.34000 -0.302700
H          7.68000       12.37000       19.30000 0.00070
Cl         6.09000       10.78000       18.75000 0.30060
Cl         6.15000       12.56000       21.01000 0.30060
Cl         6.11000       13.70000       18.32000 0.30060
C         11.24000        4.66000       13.77000 -0.302700
H         11.42000        5.69000       14.08000 0.00070
Cl         9.45000        4.63000       13.63000 0.30060
Cl        12.00000        4.39000       12.13000 0.30060
Cl        11.78000        3.51000       15.02000 0.30060
C         15.64000       11.90000       21.51000 -0.302700
H         16.09000       11.38000       20.66000 0.00070
Cl        16.33000       11.19000       22.96000 0.30060
Cl        15.91000       13.69000       21.48000 0.30060
Cl        13.96000       11.31000       21.25000 0.30060
C         13.75000       15.31000        2.02000 -0.302700
H         14.39000       14.45000        1.84000 0.00070
Cl        13.18000       15.43000        3.74000 0.30060
Cl        14.58000       16.81000        1.56000 0.30060
Cl        12.64000       15.19000        0.60000 0.30060
C         13.51000        5.23000        8.37000 -0.302700
H         14.23000        5.04000        7.57000 0.00070
Cl        12.41000        6.44000        7.68000 0.30060
Cl        12.61000        3.71000        8.64000 0.30060
Cl        14.46000        5.91000        9.64000 0.30060
C          5.13000        3.63000       10.79000 -0.302700
H          4.51000        2.82000       11.20000 0.00070
Cl         4.04000        4.67000        9.79000 0.30060
Cl         5.62000        4.42000       12.38000 0.30060
Cl         6.47000        2.93000        9.95000 0.30060
C          8.99000       10.53000       16.97000 -0.302700
H          8.40000        9.85000       17.58000 0.00070
Cl         9.92000        9.40000       15.97000 0.30060
Cl         8.03000       11.66000       15.93000 0.30060
Cl        10.17000       11.32000       18.16000 0.30060
C         17.19000        9.47000        5.21000 -0.302700
H         17.88000       10.12000        5.76000 0.00070
Cl        16.69000       10.25000        3.64000 0.30060
Cl        17.91000        7.94000        4.79000 0.30060
Cl        15.84000        9.23000        6.38000 0.30060
C         17.62000       10.93000       18.30000 -0.302700
H         17.72000       12.01000       18.24000 0.00070
Cl        17.99000       10.28000       19.90000 0.30060
Cl        15.96000       10.46000       17.93000 0.30060
Cl        18.74000       10.26000       17.14000 0.30060
C         18.17000        2.91000       13.05000 -0.302700
H         19.21000        3.22000       12.91000 0.00070
Cl        17.18000        4.32000       13.53000 0.30060
Cl        17.82000        2.09000       11.52000 0.30060
Cl        18.46000        1.65000       14.31000 0.30060
C          5.35000        4.69000       16.35000 -0.302700
H          6.02000        3.99000       15.84000 0.00070
Cl         6.30000        6.20000       16.53000 0.30060
Cl         3.76000        4.88000       15.48000 0.30060
Cl         5.11000        3.84000       17.89000 0.30060
C          9.17000       21.69000        8.05000 -0.302700
H          9.00000       22.20000        7.09000 0.00070
Cl         8.90000       19.96000        7.68000 0.30060
Cl        10.72000       22.08000        8.78000 0.30060
Cl         7.86000       22.18000        9.10000 0.30060
C         12.21000       20.00000        6.12000 -0.302700
H         11.44000       20.07000        6.90000 0.00070
Cl        11.80000       21.43000        5.17000 0.30060
Cl        13.83000       20.06000        6.81000 0.30060
Cl        11.87000       18.57000        5.12000 0.30060
C         10.47000       17.01000       10.82000 -0.302700
H         10.78000       16.91000       11.87000 0.00070
Cl         9.97000       18.72000       10.45000 0.30060
Cl        11.88000       16.64000        9.78000 0.30060
Cl         9.20000       15.84000       10.44000 0.30060
C          9.58000        7.20000        4.81000 -0.302700
H         10.27000        6.97000        5.62000 0.00070
Cl         9.14000        5.73000        3.95000 0.30060
Cl         8.20000        7.71000        5.73000 0.30060
Cl        10.29000        8.43000        3.78000 0.30060
C         12.49000        7.41000       19.27000 -0.302700
H         13.02000        6.83000       20.02000 0.00070
Cl        12.54000        6.45000       17.78000 0.30060
Cl        10.79000        7.61000       19.90000 0.30060
Cl        13.26000        8.99000       19.15000 0.30060
C          2.00000       11.15000        5.82000 -0.302700
H          1.06000       11.32000        6.36000 0.00070
Cl         1.52000       11.24000        4.13000 0.30060
Cl         3.17000       12.50000        6.04000 0.30060
Cl         2.75000        9.62000        6.29000 0.30060
C          7.86000       15.61000        5.28000 -0.302700
H          8.81000       15.45000        4.77000 0.00070
Cl         7.16000       17.17000        4.81000 0.30060
Cl         6.84000       14.19000        4.99000 0.30060
Cl         8.35000       15.62000        7.01000 0.30060
C          8.62000        2.41000        6.70000 -0.302700
H          8.04000        2.07000        7.57000 0.00070
Cl        10.01000        1.35000        6.43000 0.30060
Cl         7.31000        2.42000        5.46000 0.30060
Cl         9.02000        4.08000        7.12000 0.30060
C          5.67000       12.31000        9.43000 -0.302700
H          5.57000       11.55000       10.21000 0.00070
Cl         4.31000       13.41000        9.65000 0.30060
Cl         7.21000       13.13000        9.73000 0.30060
Cl         5.75000       11.46000        7.87000 0.30060
C          6.58000        7.88000       21.48000 -0.302700
H          6.81000        7.19000       22.29000 0.00070
Cl         4.78000        7.97000       21.28000 0.30060
Cl         7.18000        9.51000       21.90000 0.30060
Cl         7.39000        7.30000       19.98000 0.30060
C         12.08000       15.93000       18.59000 -0.302700
H         12.56000       16.80000       18.14000 0.00070
Cl        10.53000       16.50000       19.23000 0.30060
Cl        11.83000       14.75000       17.25000 0.30060
Cl        13.07000       15.31000       19.91000 0.30060
C          4.61000       17.97000        8.94000 -0.302700
H          3.61000       17.70000        9.30000 0.00070
Cl         5.33000       16.44000        8.24000 0.30060
Cl         4.60000       19.21000        7.69000 0.30060
Cl         5.61000       18.42000       10.32000 0.30060
C         13.58000        8.70000       14.55000 -0.302700
H         12.61000        8.64000       15.06000 0.00070
Cl        13.29000        8.47000       12.78000 0.30060
Cl        14.09000       10.38000       14.97000 0.30060
Cl        14.63000        7.46000       15.23000 0.30060
C         21.53000       12.83000       13.45000 -0.302700
H         21.87000       12.06000       12.75000 0.00070
Cl        22.49000       12.78000       14.86000 0.30060
Cl        21.58000       14.41000       12.61000 0.30060
Cl        19.87000       12.33000       13.84000 0.30060
C         19.77000       15.97000       10.14000 -0.302700
H         20.09000       14.94000       10.32000 0.00070
Cl        19.13000       15.87000        8.50000 0.30060
Cl        18.50000       16.60000       11.28000 0.30060
Cl        21.31000       16.96000       10.16000 0.30060
C         11.34000       11.65000        6.14000 -0.302700
H         10.75000       12.41000        6.66000 0.00070
Cl        10.50000       10.20000        6.57000 0.30060
Cl        11.36000       12.11000        4.44000 0.30060
Cl        13.00000       11.69000        6.81000 0.30060
C          4.06000        9.01000       12.97000 -0.302700
H          3.15000        8.91000       13.55000 0.00070
Cl         5.17000        7.70000       13.52000 0.30060
Cl         3.46000        8.79000       11.27000 0.30060
Cl         4.64000       10.68000       13.30000 0.30060

%Mem = 2GB
%nproc=16
# b3lyp/6-31g* td 

Butadiene tddft 

0 1
C         10.36000       10.90000       11.33000 
H          9.27000       10.95000       11.35000 
C         10.93000       11.47000       12.56000 
H         11.96000       11.27000       12.85000 
C         10.30000       12.45000       13.24000 
H          9.29000       12.77000       13.02000 
H         10.73000       12.97000       14.09000 
C         10.97000       10.33000       10.31000 
H         12.04000       10.50000       10.14000 
H         10.38000        9.92000        9.50000 
  
C          7.97000        6.60000        9.92000 -0.302700
H          7.77000        5.99000       10.81000 0.00070
Cl         9.68000        6.32000        9.44000 0.30060
Cl         6.73000        6.19000        8.75000 0.30060
Cl         7.73000        8.33000       10.43000 0.30060
C          2.64000       16.24000       14.99000 -0.302700
H          2.34000       15.42000       15.65000 0.00070
Cl         4.36000       16.07000       15.14000 0.30060
Cl         1.99000       16.13000       13.37000 0.30060
Cl         2.18000       17.77000       15.70000 0.30060
C          2.26000       12.37000       17.45000 -0.302700
H          3.26000       11.94000       17.51000 0.00070
Cl         2.27000       13.74000       18.66000 0.30060
Cl         2.10000       12.93000       15.74000 0.30060
Cl         1.07000       11.08000       17.83000 0.30060
C         16.07000       14.85000       16.03000 -0.302700
H         15.47000       14.13000       15.47000 0.00070
Cl        16.68000       14.16000       17.59000 0.30060
Cl        17.49000       15.26000       15.11000 0.30060
Cl        14.90000       16.22000       16.31000 0.30060
C          8.06000       18.97000       16.91000 -0.302700
H          7.61000       18.63000       17.85000 0.00070
Cl         6.60000       19.19000       15.86000 0.30060
Cl         8.68000       20.69000       17.17000 0.30060
Cl         9.19000       17.96000       16.03000 0.30060
C         14.79000       14.86000        7.19000 -0.302700
H         13.71000       14.81000        7.03000 0.00070
Cl        15.29000       16.57000        7.18000 0.30060
Cl        14.97000       14.06000        8.78000 0.30060
Cl        15.48000       14.04000        5.78000 0.30060
C         16.86000        8.38000       11.08000 -0.302700
H         16.13000        7.57000       11.01000 0.00070
Cl        18.21000        7.90000       10.02000 0.30060
Cl        16.05000        9.87000       10.49000 0.30060
Cl        17.52000        8.64000       12.75000 0.30060
C          6.59000       12.36000       19.34000 -0.302700
H          7.68000       12.37000       19.30000 0.00070
Cl         6.09000       10.78000       18.75000 0.30060
Cl         6.15000       12.56000       21.01000 0.30060
Cl         6.11000       13.70000       18.32000 0.30060
C         11.24000        4.66000       13.77000 -0.302700
H         11.42000        5.69000       14.08000 0.00070
Cl         9.45000        4.63000       13.63000 0.30060
Cl        12.00000        4.39000       12.13000 0.30060
Cl        11.78000        3.51000       15.02000 0.30060
C         15.64000       11.90000       21.51000 -0.302700
H         16.09000       11.38000       20.66000 0.00070
Cl        16.33000       11.19000       22.96000 0.30060
Cl        15.91000       13.69000       21.48000 0.30060
Cl        13.96000       11.31000       21.25000 0.30060
C         13.75000       15.31000        2.02000 -0.302700
H         14.39000       14.45000        1.84000 0.00070
Cl        13.18000       15.43000        3.74000 0.30060
Cl        14.58000       16.81000        1.56000 0.30060
Cl        12.64000       15.19000        0.60000 0.30060
C         13.51000        5.23000        8.37000 -0.302700
H         14.23000        5.04000        7.57000 0.00070
Cl        12.41000        6.44000        7.68000 0.30060
Cl        12.61000        3.71000        8.64000 0.30060
Cl        14.46000        5.91000        9.64000 0.30060
C          5.13000        3.63000       10.79000 -0.302700
H          4.51000        2.82000       11.20000 0.00070
Cl         4.04000        4.67000        9.79000 0.30060
Cl         5.62000        4.42000       12.38000 0.30060
Cl         6.47000        2.93000        9.95000 0.30060
C          8.99000       10.53000       16.97000 -0.302700
H          8.40000        9.85000       17.58000 0.00070
Cl         9.92000        9.40000       15.97000 0.30060
Cl         8.03000       11.66000       15.93000 0.30060
Cl        10.17000       11.32000       18.16000 0.30060
C         17.19000        9.47000        5.21000 -0.302700
H         17.88000       10.12000        5.76000 0.00070
Cl        16.69000       10.25000        3.64000 0.30060
Cl        17.91000        7.94000        4.79000 0.30060
Cl        15.84000        9.23000        6.38000 0.30060
C         17.62000       10.93000       18.30000 -0.302700
H         17.72000       12.01000       18.24000 0.00070
Cl        17.99000       10.28000       19.90000 0.30060
Cl        15.96000       10.46000       17.93000 0.30060
Cl        18.74000       10.26000       17.14000 0.30060
C         18.17000        2.91000       13.05000 -0.302700
H         19.21000        3.22000       12.91000 0.00070
Cl        17.18000        4.32000       13.53000 0.30060
Cl        17.82000        2.09000       11.52000 0.30060
Cl        18.46000        1.65000       14.31000 0.30060
C          5.35000        4.69000       16.35000 -0.302700
H          6.02000        3.99000       15.84000 0.00070
Cl         6.30000        6.20000       16.53000 0.30060
Cl         3.76000        4.88000       15.48000 0.30060
Cl         5.11000        3.84000       17.89000 0.30060
C          9.17000       21.69000        8.05000 -0.302700
H          9.00000       22.20000        7.09000 0.00070
Cl         8.90000       19.96000        7.68000 0.30060
Cl        10.72000       22.08000        8.78000 0.30060
Cl         7.86000       22.18000        9.10000 0.30060
C         12.21000       20.00000        6.12000 -0.302700
H         11.44000       20.07000        6.90000 0.00070
Cl        11.80000       21.43000        5.17000 0.30060
Cl        13.83000       20.06000        6.81000 0.30060
Cl        11.87000       18.57000        5.12000 0.30060
C         10.47000       17.01000       10.82000 -0.302700
H         10.78000       16.91000       11.87000 0.00070
Cl         9.97000       18.72000       10.45000 0.30060
Cl        11.88000       16.64000        9.78000 0.30060
Cl         9.20000       15.84000       10.44000 0.30060
C          9.58000        7.20000        4.81000 -0.302700
H         10.27000        6.97000        5.62000 0.00070
Cl         9.14000        5.73000        3.95000 0.30060
Cl         8.20000        7.71000        5.73000 0.30060
Cl        10.29000        8.43000        3.78000 0.30060
C         12.49000        7.41000       19.27000 -0.302700
H         13.02000        6.83000       20.02000 0.00070
Cl        12.54000        6.45000       17.78000 0.30060
Cl        10.79000        7.61000       19.90000 0.30060
Cl        13.26000        8.99000       19.15000 0.30060
C          2.00000       11.15000        5.82000 -0.302700
H          1.06000       11.32000        6.36000 0.00070
Cl         1.52000       11.24000        4.13000 0.30060
Cl         3.17000       12.50000        6.04000 0.30060
Cl         2.75000        9.62000        6.29000 0.30060
C          7.86000       15.61000        5.28000 -0.302700
H          8.81000       15.45000        4.77000 0.00070
Cl         7.16000       17.17000        4.81000 0.30060
Cl         6.84000       14.19000        4.99000 0.30060
Cl         8.35000       15.62000        7.01000 0.30060
C          8.62000        2.41000        6.70000 -0.302700
H          8.04000        2.07000        7.57000 0.00070
Cl        10.01000        1.35000        6.43000 0.30060
Cl         7.31000        2.42000        5.46000 0.30060
Cl         9.02000        4.08000        7.12000 0.30060
C          5.67000       12.31000        9.43000 -0.302700
H          5.57000       11.55000       10.21000 0.00070
Cl         4.31000       13.41000        9.65000 0.30060
Cl         7.21000       13.13000        9.73000 0.30060
Cl         5.75000       11.46000        7.87000 0.30060
C          6.58000        7.88000       21.48000 -0.302700
H          6.81000        7.19000       22.29000 0.00070
Cl         4.78000        7.97000       21.28000 0.30060
Cl         7.18000        9.51000       21.90000 0.30060
Cl         7.39000        7.30000       19.98000 0.30060
C         12.08000       15.93000       18.59000 -0.302700
H         12.56000       16.80000       18.14000 0.00070
Cl        10.53000       16.50000       19.23000 0.30060
Cl        11.83000       14.75000       17.25000 0.30060
Cl        13.07000       15.31000       19.91000 0.30060
C          4.61000       17.97000        8.94000 -0.302700
H          3.61000       17.70000        9.30000 0.00070
Cl         5.33000       16.44000        8.24000 0.30060
Cl         4.60000       19.21000        7.69000 0.30060
Cl         5.61000       18.42000       10.32000 0.30060
C         13.58000        8.70000       14.55000 -0.302700
H         12.61000        8.64000       15.06000 0.00070
Cl        13.29000        8.47000       12.78000 0.30060
Cl        14.09000       10.38000       14.97000 0.30060
Cl        14.63000        7.46000       15.23000 0.30060
C         21.53000       12.83000       13.45000 -0.302700
H         21.87000       12.06000       12.75000 0.00070
Cl        22.49000       12.78000       14.86000 0.30060
Cl        21.58000       14.41000       12.61000 0.30060
Cl        19.87000       12.33000       13.84000 0.30060
C         19.77000       15.97000       10.14000 -0.302700
H         20.09000       14.94000       10.32000 0.00070
Cl        19.13000       15.87000        8.50000 0.30060
Cl        18.50000       16.60000       11.28000 0.30060
Cl        21.31000       16.96000       10.16000 0.30060
C         11.34000       11.65000        6.14000 -0.302700
H         10.75000       12.41000        6.66000 0.00070
Cl        10.50000       10.20000        6.57000 0.30060
Cl        11.36000       12.11000        4.44000 0.30060
Cl        13.00000       11.69000        6.81000 0.30060
C          4.06000        9.01000       12.97000 -0.302700
H          3.15000        8.91000       13.55000 0.00070
Cl         5.17000        7.70000       13.52000 0.30060
Cl         3.46000        8.79000       11.27000 0.30060
Cl         4.64000       10.68000       13.30000 0.30060

