%Mem = 2GB
%nproc=16
# b3lyp/6-31g* td 

Butadiene tddft 

0 1
C         13.26000       12.39000       11.12000 
H         13.33000       13.47000       11.19000 
C         11.93000       11.81000       11.00000 
H         11.90000       10.74000       11.21000 
C         10.83000       12.61000       10.71000 
H         10.82000       13.70000       10.60000 
H          9.85000       12.16000       10.69000 
C         14.36000       11.66000       11.38000 
H         14.15000       10.60000       11.47000 
H         15.38000       11.99000       11.57000 
  
C         16.90000       15.73000        8.15000 -0.302700
H         17.23000       15.11000        8.99000 0.00070
Cl        18.32000       16.19000        7.19000 0.30060
Cl        15.89000       14.66000        7.07000 0.30060
Cl        16.14000       17.21000        8.74000 0.30060
C          8.60000        7.83000       18.92000 -0.302700
H          8.36000        7.73000       17.86000 0.00070
Cl         8.41000        9.49000       19.47000 0.30060
Cl         7.63000        6.63000       19.77000 0.30060
Cl        10.18000        7.15000       19.26000 0.30060
C         11.81000       10.24000        7.68000 -0.302700
H         12.00000       10.15000        8.75000 0.00070
Cl        10.21000       10.99000        7.58000 0.30060
Cl        13.01000       11.45000        7.27000 0.30060
Cl        11.87000        8.62000        6.83000 0.30060
C         18.77000       13.57000       17.27000 -0.302700
H         19.49000       14.39000       17.18000 0.00070
Cl        19.08000       12.71000       15.77000 0.30060
Cl        19.04000       12.54000       18.65000 0.30060
Cl        17.13000       14.14000       17.28000 0.30060
C          6.35000       11.85000        9.30000 -0.302700
H          7.04000       11.30000        9.94000 0.00070
Cl         4.87000       10.89000        9.12000 0.30060
Cl         5.98000       13.46000       10.03000 0.30060
Cl         6.95000       12.11000        7.61000 0.30060
C          5.17000        5.86000       15.12000 -0.302700
H          4.55000        5.05000       14.74000 0.00070
Cl         6.25000        6.41000       13.83000 0.30060
Cl         4.03000        7.15000       15.67000 0.30060
Cl         6.03000        5.30000       16.62000 0.30060
C          8.88000       14.99000        6.87000 -0.302700
H          8.82000       13.96000        7.21000 0.00070
Cl         8.84000       15.27000        5.11000 0.30060
Cl         7.27000       15.71000        7.49000 0.30060
Cl        10.14000       15.75000        7.81000 0.30060
C         19.79000        6.04000        5.61000 -0.302700
H         19.77000        6.76000        4.78000 0.00070
Cl        20.55000        4.58000        4.97000 0.30060
Cl        20.75000        6.79000        6.95000 0.30060
Cl        18.14000        5.57000        6.13000 0.30060
C          6.57000       11.48000       13.97000 -0.302700
H          6.95000       11.88000       14.91000 0.00070
Cl         7.80000       11.75000       12.69000 0.30060
Cl         6.33000        9.73000       14.21000 0.30060
Cl         4.97000       12.21000       13.54000 0.30060
C         14.17000        3.99000       12.95000 -0.302700
H         14.77000        4.48000       13.72000 0.00070
Cl        13.21000        2.80000       13.85000 0.30060
Cl        12.94000        5.04000       12.22000 0.30060
Cl        15.04000        3.10000       11.66000 0.30060
C         19.47000       15.74000       12.95000 -0.302700
H         20.22000       16.53000       12.94000 0.00070
Cl        20.38000       14.20000       13.23000 0.30060
Cl        18.36000       16.00000       14.33000 0.30060
Cl        18.70000       15.84000       11.30000 0.30060
C         10.37000        2.45000       10.36000 -0.302700
H          9.96000        3.10000       11.14000 0.00070
Cl        11.17000        3.52000        9.19000 0.30060
Cl        11.51000        1.44000       11.23000 0.30060
Cl         9.16000        1.33000        9.62000 0.30060
C         20.51000       10.24000       12.34000 -0.302700
H         20.93000       11.23000       12.14000 0.00070
Cl        21.33000        9.30000       13.65000 0.30060
Cl        18.81000       10.34000       12.84000 0.30060
Cl        20.74000        9.27000       10.86000 0.30060
C         10.97000       19.92000        7.82000 -0.302700
H         10.69000       20.96000        7.64000 0.00070
Cl        11.23000       19.03000        6.30000 0.30060
Cl        12.57000       19.98000        8.59000 0.30060
Cl         9.81000       19.20000        8.93000 0.30060
C         14.40000        5.74000       18.90000 -0.302700
H         13.75000        6.25000       19.62000 0.00070
Cl        13.59000        5.90000       17.29000 0.30060
Cl        16.03000        6.53000       18.97000 0.30060
Cl        14.37000        4.09000       19.53000 0.30060
C         12.42000        9.70000       15.37000 -0.302700
H         11.40000        9.90000       15.71000 0.00070
Cl        13.23000        9.61000       16.99000 0.30060
Cl        12.45000        8.27000       14.31000 0.30060
Cl        12.81000       11.19000       14.50000 0.30060
C         15.81000       21.41000       12.82000 -0.302700
H         15.12000       21.72000       12.04000 0.00070
Cl        15.08000       21.83000       14.40000 0.30060
Cl        16.05000       19.71000       12.74000 0.30060
Cl        17.40000       22.22000       12.62000 0.30060
C         17.21000        8.69000       16.01000 -0.302700
H         16.70000        8.20000       16.84000 0.00070
Cl        16.84000        7.89000       14.43000 0.30060
Cl        16.58000       10.36000       16.07000 0.30060
Cl        18.95000        8.65000       16.42000 0.30060
C         10.88000       15.80000       14.36000 -0.302700
H         11.63000       15.01000       14.28000 0.00070
Cl         9.33000       15.04000       14.89000 0.30060
Cl        11.70000       16.81000       15.51000 0.30060
Cl        11.04000       16.49000       12.75000 0.30060
C         13.16000       18.74000       20.16000 -0.302700
H         13.87000       19.51000       20.48000 0.00070
Cl        13.27000       17.45000       21.44000 0.30060
Cl        11.54000       19.38000       20.11000 0.30060
Cl        13.56000       17.98000       18.53000 0.30060
C         12.73000       11.68000       22.31000 -0.302700
H         13.30000       11.65000       23.24000 0.00070
Cl        12.06000       13.36000       22.02000 0.30060
Cl        13.67000       11.22000       20.84000 0.30060
Cl        11.51000       10.47000       22.66000 0.30060
C         13.07000       13.82000        3.18000 -0.302700
H         13.44000       14.71000        2.66000 0.00070
Cl        14.34000       12.57000        3.33000 0.30060
Cl        12.56000       14.29000        4.75000 0.30060
Cl        11.51000       13.54000        2.30000 0.30060
C          9.91000       19.32000       14.87000 -0.302700
H          9.99000       18.26000       15.12000 0.00070
Cl        10.88000       20.32000       15.96000 0.30060
Cl        10.37000       19.72000       13.19000 0.30060
Cl         8.26000       19.78000       15.24000 0.30060
C         12.89000        7.60000        1.21000 -0.302700
H         12.35000        7.92000        0.32000 0.00070
Cl        11.60000        7.44000        2.48000 0.30060
Cl        13.61000        6.03000        0.89000 0.30060
Cl        14.14000        8.80000        1.47000 0.30060
C          3.41000        7.00000        8.26000 -0.302700
H          3.45000        8.08000        8.44000 0.00070
Cl         5.06000        6.55000        7.76000 0.30060
Cl         2.91000        6.12000        9.75000 0.30060
Cl         2.22000        6.80000        6.93000 0.30060
C         11.62000       13.41000       18.19000 -0.302700
H         11.87000       12.68000       18.96000 0.00070
Cl        10.56000       12.55000       17.08000 0.30060
Cl        10.79000       14.81000       18.99000 0.30060
Cl        13.13000       13.91000       17.39000 0.30060
C          3.88000       13.25000       17.70000 -0.302700
H          4.42000       14.03000       18.25000 0.00070
Cl         5.06000       11.97000       17.37000 0.30060
Cl         2.42000       12.73000       18.51000 0.30060
Cl         3.33000       13.91000       16.18000 0.30060
C         10.18000        5.73000       15.06000 -0.302700
H         11.27000        5.74000       15.08000 0.00070
Cl         9.71000        5.17000       13.41000 0.30060
Cl         9.80000        4.55000       16.38000 0.30060
Cl         9.52000        7.34000       15.41000 0.30060
C          6.24000       17.22000       12.96000 -0.302700
H          5.94000       18.24000       12.76000 0.00070
Cl         6.15000       16.86000       14.70000 0.30060
Cl         5.13000       16.20000       11.98000 0.30060
Cl         7.85000       16.97000       12.30000 0.30060
C         16.25000       16.43000        1.82000 -0.302700
H         16.64000       17.45000        1.78000 0.00070
Cl        15.82000       16.20000        3.56000 0.30060
Cl        14.75000       16.45000        0.78000 0.30060
Cl        17.60000       15.32000        1.24000 0.30060
C         16.51000        7.57000       10.18000 -0.302700
H         16.83000        7.94000       11.15000 0.00070
Cl        14.70000        7.41000       10.33000 0.30060
Cl        16.87000        8.89000        9.03000 0.30060
Cl        17.45000        6.06000        9.88000 0.30060
C         19.74000       12.41000        8.79000 -0.302700
H         20.20000       11.43000        8.91000 0.00070
Cl        20.84000       13.77000        9.13000 0.30060
Cl        18.96000       12.34000        7.15000 0.30060
Cl        18.47000       12.46000       10.03000 0.30060
C         17.20000       10.11000        3.92000 -0.302700
H         16.13000       10.22000        3.71000 0.00070
Cl        17.81000        8.92000        2.73000 0.30060
Cl        17.89000       11.78000        3.68000 0.30060
Cl        17.37000        9.41000        5.51000 0.30060
C          8.93000        7.46000       10.33000 -0.302700
H          9.18000        7.61000       11.38000 0.00070
Cl         8.34000        9.18000       10.09000 0.30060
Cl        10.38000        7.00000        9.42000 0.30060
Cl         7.62000        6.33000       10.08000 0.30060

%Mem = 2GB
%nproc=16
# b3lyp/6-31g* td 

Butadiene tddft 

0 1
C         13.26000       12.39000       11.12000 
H         13.33000       13.47000       11.19000 
C         11.93000       11.81000       11.00000 
H         11.90000       10.74000       11.21000 
C         10.83000       12.61000       10.71000 
H         10.82000       13.70000       10.60000 
H          9.85000       12.16000       10.69000 
C         14.36000       11.66000       11.38000 
H         14.15000       10.60000       11.47000 
H         15.38000       11.99000       11.57000 
  
C         16.90000       15.73000        8.15000 -0.302700
H         17.23000       15.11000        8.99000 0.00070
Cl        18.32000       16.19000        7.19000 0.30060
Cl        15.89000       14.66000        7.07000 0.30060
Cl        16.14000       17.21000        8.74000 0.30060
C          8.60000        7.83000       18.92000 -0.302700
H          8.36000        7.73000       17.86000 0.00070
Cl         8.41000        9.49000       19.47000 0.30060
Cl         7.63000        6.63000       19.77000 0.30060
Cl        10.18000        7.15000       19.26000 0.30060
C         11.81000       10.24000        7.68000 -0.302700
H         12.00000       10.15000        8.75000 0.00070
Cl        10.21000       10.99000        7.58000 0.30060
Cl        13.01000       11.45000        7.27000 0.30060
Cl        11.87000        8.62000        6.83000 0.30060
C         18.77000       13.57000       17.27000 -0.302700
H         19.49000       14.39000       17.18000 0.00070
Cl        19.08000       12.71000       15.77000 0.30060
Cl        19.04000       12.54000       18.65000 0.30060
Cl        17.13000       14.14000       17.28000 0.30060
C          6.35000       11.85000        9.30000 -0.302700
H          7.04000       11.30000        9.94000 0.00070
Cl         4.87000       10.89000        9.12000 0.30060
Cl         5.98000       13.46000       10.03000 0.30060
Cl         6.95000       12.11000        7.61000 0.30060
C          5.17000        5.86000       15.12000 -0.302700
H          4.55000        5.05000       14.74000 0.00070
Cl         6.25000        6.41000       13.83000 0.30060
Cl         4.03000        7.15000       15.67000 0.30060
Cl         6.03000        5.30000       16.62000 0.30060
C          8.88000       14.99000        6.87000 -0.302700
H          8.82000       13.96000        7.21000 0.00070
Cl         8.84000       15.27000        5.11000 0.30060
Cl         7.27000       15.71000        7.49000 0.30060
Cl        10.14000       15.75000        7.81000 0.30060
C         19.79000        6.04000        5.61000 -0.302700
H         19.77000        6.76000        4.78000 0.00070
Cl        20.55000        4.58000        4.97000 0.30060
Cl        20.75000        6.79000        6.95000 0.30060
Cl        18.14000        5.57000        6.13000 0.30060
C          6.57000       11.48000       13.97000 -0.302700
H          6.95000       11.88000       14.91000 0.00070
Cl         7.80000       11.75000       12.69000 0.30060
Cl         6.33000        9.73000       14.21000 0.30060
Cl         4.97000       12.21000       13.54000 0.30060
C         14.17000        3.99000       12.95000 -0.302700
H         14.77000        4.48000       13.72000 0.00070
Cl        13.21000        2.80000       13.85000 0.30060
Cl        12.94000        5.04000       12.22000 0.30060
Cl        15.04000        3.10000       11.66000 0.30060
C         19.47000       15.74000       12.95000 -0.302700
H         20.22000       16.53000       12.94000 0.00070
Cl        20.38000       14.20000       13.23000 0.30060
Cl        18.36000       16.00000       14.33000 0.30060
Cl        18.70000       15.84000       11.30000 0.30060
C         10.37000        2.45000       10.36000 -0.302700
H          9.96000        3.10000       11.14000 0.00070
Cl        11.17000        3.52000        9.19000 0.30060
Cl        11.51000        1.44000       11.23000 0.30060
Cl         9.16000        1.33000        9.62000 0.30060
C         20.51000       10.24000       12.34000 -0.302700
H         20.93000       11.23000       12.14000 0.00070
Cl        21.33000        9.30000       13.65000 0.30060
Cl        18.81000       10.34000       12.84000 0.30060
Cl        20.74000        9.27000       10.86000 0.30060
C         10.97000       19.92000        7.82000 -0.302700
H         10.69000       20.96000        7.64000 0.00070
Cl        11.23000       19.03000        6.30000 0.30060
Cl        12.57000       19.98000        8.59000 0.30060
Cl         9.81000       19.20000        8.93000 0.30060
C         14.40000        5.74000       18.90000 -0.302700
H         13.75000        6.25000       19.62000 0.00070
Cl        13.59000        5.90000       17.29000 0.30060
Cl        16.03000        6.53000       18.97000 0.30060
Cl        14.37000        4.09000       19.53000 0.30060
C         12.42000        9.70000       15.37000 -0.302700
H         11.40000        9.90000       15.71000 0.00070
Cl        13.23000        9.61000       16.99000 0.30060
Cl        12.45000        8.27000       14.31000 0.30060
Cl        12.81000       11.19000       14.50000 0.30060
C         15.81000       21.41000       12.82000 -0.302700
H         15.12000       21.72000       12.04000 0.00070
Cl        15.08000       21.83000       14.40000 0.30060
Cl        16.05000       19.71000       12.74000 0.30060
Cl        17.40000       22.22000       12.62000 0.30060
C         17.21000        8.69000       16.01000 -0.302700
H         16.70000        8.20000       16.84000 0.00070
Cl        16.84000        7.89000       14.43000 0.30060
Cl        16.58000       10.36000       16.07000 0.30060
Cl        18.95000        8.65000       16.42000 0.30060
C         10.88000       15.80000       14.36000 -0.302700
H         11.63000       15.01000       14.28000 0.00070
Cl         9.33000       15.04000       14.89000 0.30060
Cl        11.70000       16.81000       15.51000 0.30060
Cl        11.04000       16.49000       12.75000 0.30060
C         13.16000       18.74000       20.16000 -0.302700
H         13.87000       19.51000       20.48000 0.00070
Cl        13.27000       17.45000       21.44000 0.30060
Cl        11.54000       19.38000       20.11000 0.30060
Cl        13.56000       17.98000       18.53000 0.30060
C         12.73000       11.68000       22.31000 -0.302700
H         13.30000       11.65000       23.24000 0.00070
Cl        12.06000       13.36000       22.02000 0.30060
Cl        13.67000       11.22000       20.84000 0.30060
Cl        11.51000       10.47000       22.66000 0.30060
C         13.07000       13.82000        3.18000 -0.302700
H         13.44000       14.71000        2.66000 0.00070
Cl        14.34000       12.57000        3.33000 0.30060
Cl        12.56000       14.29000        4.75000 0.30060
Cl        11.51000       13.54000        2.30000 0.30060
C          9.91000       19.32000       14.87000 -0.302700
H          9.99000       18.26000       15.12000 0.00070
Cl        10.88000       20.32000       15.96000 0.30060
Cl        10.37000       19.72000       13.19000 0.30060
Cl         8.26000       19.78000       15.24000 0.30060
C         12.89000        7.60000        1.21000 -0.302700
H         12.35000        7.92000        0.32000 0.00070
Cl        11.60000        7.44000        2.48000 0.30060
Cl        13.61000        6.03000        0.89000 0.30060
Cl        14.14000        8.80000        1.47000 0.30060
C          3.41000        7.00000        8.26000 -0.302700
H          3.45000        8.08000        8.44000 0.00070
Cl         5.06000        6.55000        7.76000 0.30060
Cl         2.91000        6.12000        9.75000 0.30060
Cl         2.22000        6.80000        6.93000 0.30060
C         11.62000       13.41000       18.19000 -0.302700
H         11.87000       12.68000       18.96000 0.00070
Cl        10.56000       12.55000       17.08000 0.30060
Cl        10.79000       14.81000       18.99000 0.30060
Cl        13.13000       13.91000       17.39000 0.30060
C          3.88000       13.25000       17.70000 -0.302700
H          4.42000       14.03000       18.25000 0.00070
Cl         5.06000       11.97000       17.37000 0.30060
Cl         2.42000       12.73000       18.51000 0.30060
Cl         3.33000       13.91000       16.18000 0.30060
C         10.18000        5.73000       15.06000 -0.302700
H         11.27000        5.74000       15.08000 0.00070
Cl         9.71000        5.17000       13.41000 0.30060
Cl         9.80000        4.55000       16.38000 0.30060
Cl         9.52000        7.34000       15.41000 0.30060
C          6.24000       17.22000       12.96000 -0.302700
H          5.94000       18.24000       12.76000 0.00070
Cl         6.15000       16.86000       14.70000 0.30060
Cl         5.13000       16.20000       11.98000 0.30060
Cl         7.85000       16.97000       12.30000 0.30060
C         16.25000       16.43000        1.82000 -0.302700
H         16.64000       17.45000        1.78000 0.00070
Cl        15.82000       16.20000        3.56000 0.30060
Cl        14.75000       16.45000        0.78000 0.30060
Cl        17.60000       15.32000        1.24000 0.30060
C         16.51000        7.57000       10.18000 -0.302700
H         16.83000        7.94000       11.15000 0.00070
Cl        14.70000        7.41000       10.33000 0.30060
Cl        16.87000        8.89000        9.03000 0.30060
Cl        17.45000        6.06000        9.88000 0.30060
C         19.74000       12.41000        8.79000 -0.302700
H         20.20000       11.43000        8.91000 0.00070
Cl        20.84000       13.77000        9.13000 0.30060
Cl        18.96000       12.34000        7.15000 0.30060
Cl        18.47000       12.46000       10.03000 0.30060
C         17.20000       10.11000        3.92000 -0.302700
H         16.13000       10.22000        3.71000 0.00070
Cl        17.81000        8.92000        2.73000 0.30060
Cl        17.89000       11.78000        3.68000 0.30060
Cl        17.37000        9.41000        5.51000 0.30060
C          8.93000        7.46000       10.33000 -0.302700
H          9.18000        7.61000       11.38000 0.00070
Cl         8.34000        9.18000       10.09000 0.30060
Cl        10.38000        7.00000        9.42000 0.30060
Cl         7.62000        6.33000       10.08000 0.30060

