%Mem = 2GB
%nproc=16
# b3lyp/6-31g* td 

Butadiene tddft 

0 1
C         12.78000       10.02000       11.49000 
H         11.91000        9.43000       11.76000 
C         12.86000       10.73000       10.20000 
H         13.87000       11.07000        9.94000 
C         11.79000       11.09000        9.48000 
H         10.82000       10.64000        9.70000 
H         11.84000       11.63000        8.54000 
C         13.79000        9.94000       12.43000 
H         14.75000       10.43000       12.33000 
H         13.61000        9.31000       13.30000 
  
C         18.66000       14.95000       12.08000 -0.302700
H         18.27000       14.05000       11.61000 0.00070
Cl        18.27000       16.39000       10.95000 0.30060
Cl        17.82000       15.17000       13.72000 0.30060
Cl        20.36000       14.84000       12.52000 0.30060
C         10.76000        1.81000        4.34000 -0.302700
H         10.17000        0.90000        4.50000 0.00070
Cl        11.29000        2.29000        5.96000 0.30060
Cl        12.16000        1.48000        3.26000 0.30060
Cl         9.61000        3.10000        3.80000 0.30060
C          6.67000       11.13000       15.01000 -0.302700
H          6.40000       10.49000       14.16000 0.00070
Cl         5.94000       12.70000       14.66000 0.30060
Cl         6.23000       10.32000       16.54000 0.30060
Cl         8.47000       11.02000       14.79000 0.30060
C          4.52000        6.71000       14.10000 -0.302700
H          5.28000        6.39000       14.82000 0.00070
Cl         5.17000        6.71000       12.48000 0.30060
Cl         3.14000        5.58000       14.28000 0.30060
Cl         4.00000        8.32000       14.61000 0.30060
C         20.93000       10.15000       13.21000 -0.302700
H         21.21000        9.21000       12.73000 0.00070
Cl        21.89000       10.42000       14.70000 0.30060
Cl        21.13000       11.51000       12.06000 0.30060
Cl        19.22000        9.95000       13.49000 0.30060
C         17.70000       12.23000       17.67000 -0.302700
H         16.80000       12.31000       17.04000 0.00070
Cl        19.00000       11.32000       16.67000 0.30060
Cl        18.21000       13.96000       18.02000 0.30060
Cl        17.13000       11.50000       19.21000 0.30060
C         18.84000        8.45000        4.94000 -0.302700
H         18.68000        8.43000        6.03000 0.00070
Cl        17.81000        9.77000        4.19000 0.30060
Cl        20.60000        8.60000        4.75000 0.30060
Cl        18.36000        6.87000        4.31000 0.30060
C         11.69000       10.90000       20.13000 -0.302700
H         10.74000       10.40000       19.91000 0.00070
Cl        12.88000        9.58000       20.28000 0.30060
Cl        12.03000       12.03000       18.81000 0.30060
Cl        11.70000       11.74000       21.72000 0.30060
C         20.43000        4.20000        8.43000 -0.302700
H         20.59000        4.52000        9.47000 0.00070
Cl        18.70000        3.97000        8.09000 0.30060
Cl        21.09000        5.51000        7.49000 0.30060
Cl        21.32000        2.71000        8.16000 0.30060
C          9.87000        7.84000       16.64000 -0.302700
H         10.49000        7.07000       17.10000 0.00070
Cl         8.47000        7.01000       15.90000 0.30060
Cl         9.29000        9.07000       17.85000 0.30060
Cl        10.92000        8.68000       15.37000 0.30060
C         11.82000       20.98000       12.30000 -0.302700
H         12.45000       20.95000       11.41000 0.00070
Cl        11.17000       22.66000       12.39000 0.30060
Cl        10.63000       19.67000       12.40000 0.30060
Cl        13.11000       20.69000       13.45000 0.30060
C          6.74000        7.39000        6.61000 -0.302700
H          7.66000        7.77000        6.15000 0.00070
Cl         5.35000        7.26000        5.42000 0.30060
Cl         7.19000        5.90000        7.40000 0.30060
Cl         6.46000        8.76000        7.73000 0.30060
C         13.67000       15.58000       15.50000 -0.302700
H         12.79000       15.90000       16.06000 0.00070
Cl        15.09000       16.61000       16.11000 0.30060
Cl        13.98000       13.86000       15.82000 0.30060
Cl        13.43000       15.90000       13.75000 0.30060
C         16.09000       20.59000        9.69000 -0.302700
H         17.02000       20.72000        9.13000 0.00070
Cl        15.25000       22.11000        9.82000 0.30060
Cl        15.13000       19.52000        8.60000 0.30060
Cl        16.36000       19.79000       11.27000 0.30060
C         19.23000       14.20000        3.65000 -0.302700
H         18.68000       13.79000        2.80000 0.00070
Cl        19.80000       12.94000        4.72000 0.30060
Cl        20.53000       15.15000        2.82000 0.30060
Cl        18.20000       15.32000        4.56000 0.30060
C         15.16000        2.15000        7.28000 -0.302700
H         16.20000        2.07000        7.59000 0.00070
Cl        14.20000        1.64000        8.68000 0.30060
Cl        14.88000        3.88000        6.69000 0.30060
Cl        14.98000        1.07000        5.86000 0.30060
C          9.27000        6.77000       10.91000 -0.302700
H          8.67000        6.40000       10.07000 0.00070
Cl        10.93000        6.19000       10.90000 0.30060
Cl         9.29000        8.47000       10.84000 0.30060
Cl         8.54000        6.31000       12.44000 0.30060
C         22.11000        4.87000       13.82000 -0.302700
H         23.09000        5.22000       14.16000 0.00070
Cl        21.60000        3.56000       14.90000 0.30060
Cl        20.96000        6.24000       13.82000 0.30060
Cl        22.46000        4.21000       12.19000 0.30060
C          5.87000        2.54000       14.91000 -0.302700
H          5.24000        2.63000       14.02000 0.00070
Cl         6.74000        4.05000       15.00000 0.30060
Cl         4.80000        2.47000       16.32000 0.30060
Cl         6.84000        1.01000       14.85000 0.30060
C         10.35000       17.58000        4.87000 -0.302700
H          9.53000       18.31000        4.93000 0.00070
Cl        11.64000       18.72000        4.55000 0.30060
Cl        10.43000       16.71000        6.43000 0.30060
Cl        10.13000       16.49000        3.44000 0.30060
C         14.07000       15.58000        4.38000 -0.302700
H         12.99000       15.66000        4.22000 0.00070
Cl        14.78000       17.02000        5.25000 0.30060
Cl        14.38000       14.00000        5.10000 0.30060
Cl        14.80000       15.67000        2.70000 0.30060
C         14.71000       14.07000       10.12000 -0.302700
H         15.46000       14.86000       10.27000 0.00070
Cl        15.04000       13.15000       11.59000 0.30060
Cl        13.08000       14.75000       10.04000 0.30060
Cl        15.21000       13.33000        8.57000 0.30060
C         15.52000        3.08000       12.52000 -0.302700
H         15.55000        3.20000       11.44000 0.00070
Cl        14.68000        4.51000       13.12000 0.30060
Cl        14.55000        1.61000       12.75000 0.30060
Cl        16.98000        2.74000       13.49000 0.30060
C         11.20000       12.32000        2.63000 -0.302700
H         10.63000       13.20000        2.34000 0.00070
Cl        11.23000       12.25000        4.38000 0.30060
Cl        10.60000       10.85000        1.83000 0.30060
Cl        12.91000       12.77000        2.08000 0.30060
C         20.82000       16.90000        7.08000 -0.302700
H         20.63000       16.43000        6.11000 0.00070
Cl        20.99000       18.70000        6.84000 0.30060
Cl        19.33000       16.56000        7.95000 0.30060
Cl        22.29000       15.95000        7.65000 0.30060
C          8.16000       14.15000       17.19000 -0.302700
H          7.81000       13.24000       16.70000 0.00070
Cl         6.76000       15.27000       16.96000 0.30060
Cl         8.43000       13.79000       18.98000 0.30060
Cl         9.57000       14.74000       16.36000 0.30060
C          1.89000       13.28000       10.62000 -0.302700
H          1.53000       13.74000       11.54000 0.00070
Cl         0.46000       12.50000        9.95000 0.30060
Cl         2.45000       14.57000        9.57000 0.30060
Cl         3.26000       12.15000       11.02000 0.30060
C         10.94000        8.10000        6.10000 -0.302700
H         11.97000        8.43000        5.93000 0.00070
Cl        10.11000        9.26000        7.10000 0.30060
Cl        10.23000        8.07000        4.41000 0.30060
Cl        10.85000        6.43000        6.79000 0.30060
C          6.86000       13.60000        9.68000 -0.302700
H          5.91000       13.91000       10.13000 0.00070
Cl         7.10000       11.89000       10.15000 0.30060
Cl         6.71000       14.07000        7.93000 0.30060
Cl         8.21000       14.35000       10.50000 0.30060
C         10.93000        3.25000       17.15000 -0.302700
H         11.23000        2.32000       17.64000 0.00070
Cl        12.42000        4.24000       17.18000 0.30060
Cl        10.44000        2.91000       15.55000 0.30060
Cl         9.54000        3.84000       18.20000 0.30060
C         16.62000        6.67000       15.39000 -0.302700
H         16.32000        5.62000       15.39000 0.00070
Cl        17.89000        7.01000       16.59000 0.30060
Cl        17.14000        7.18000       13.76000 0.30060
Cl        15.01000        7.41000       15.86000 0.30060
C          5.96000       11.72000        3.82000 -0.302700
H          6.28000       12.56000        4.44000 0.00070
Cl         4.97000       12.36000        2.44000 0.30060
Cl         7.58000       11.15000        3.21000 0.30060
Cl         5.02000       10.60000        4.79000 0.30060
C         17.59000        8.88000        9.82000 -0.302700
H         17.86000        9.42000       10.73000 0.00070
Cl        17.52000        9.97000        8.42000 0.30060
Cl        19.02000        7.82000        9.70000 0.30060
Cl        16.04000        7.99000       10.04000 0.30060
C         13.61000        9.26000        4.10000 -0.302700
H         12.63000        9.64000        3.82000 0.00070
Cl        14.86000       10.06000        3.05000 0.30060
Cl        13.96000        9.81000        5.78000 0.30060
Cl        13.77000        7.47000        4.14000 0.30060
C          8.20000        2.98000        9.12000 -0.302700
H          8.78000        3.86000        8.83000 0.00070
Cl         9.30000        1.71000        9.67000 0.30060
Cl         7.24000        3.61000       10.51000 0.30060
Cl         7.17000        2.40000        7.76000 0.30060

%Mem = 2GB
%nproc=16
# b3lyp/6-31g* td 

Butadiene tddft 

0 1
C         12.78000       10.02000       11.49000 
H         11.91000        9.43000       11.76000 
C         12.86000       10.73000       10.20000 
H         13.87000       11.07000        9.94000 
C         11.79000       11.09000        9.48000 
H         10.82000       10.64000        9.70000 
H         11.84000       11.63000        8.54000 
C         13.79000        9.94000       12.43000 
H         14.75000       10.43000       12.33000 
H         13.61000        9.31000       13.30000 
  
C         18.66000       14.95000       12.08000 -0.302700
H         18.27000       14.05000       11.61000 0.00070
Cl        18.27000       16.39000       10.95000 0.30060
Cl        17.82000       15.17000       13.72000 0.30060
Cl        20.36000       14.84000       12.52000 0.30060
C         10.76000        1.81000        4.34000 -0.302700
H         10.17000        0.90000        4.50000 0.00070
Cl        11.29000        2.29000        5.96000 0.30060
Cl        12.16000        1.48000        3.26000 0.30060
Cl         9.61000        3.10000        3.80000 0.30060
C          6.67000       11.13000       15.01000 -0.302700
H          6.40000       10.49000       14.16000 0.00070
Cl         5.94000       12.70000       14.66000 0.30060
Cl         6.23000       10.32000       16.54000 0.30060
Cl         8.47000       11.02000       14.79000 0.30060
C          4.52000        6.71000       14.10000 -0.302700
H          5.28000        6.39000       14.82000 0.00070
Cl         5.17000        6.71000       12.48000 0.30060
Cl         3.14000        5.58000       14.28000 0.30060
Cl         4.00000        8.32000       14.61000 0.30060
C         20.93000       10.15000       13.21000 -0.302700
H         21.21000        9.21000       12.73000 0.00070
Cl        21.89000       10.42000       14.70000 0.30060
Cl        21.13000       11.51000       12.06000 0.30060
Cl        19.22000        9.95000       13.49000 0.30060
C         17.70000       12.23000       17.67000 -0.302700
H         16.80000       12.31000       17.04000 0.00070
Cl        19.00000       11.32000       16.67000 0.30060
Cl        18.21000       13.96000       18.02000 0.30060
Cl        17.13000       11.50000       19.21000 0.30060
C         18.84000        8.45000        4.94000 -0.302700
H         18.68000        8.43000        6.03000 0.00070
Cl        17.81000        9.77000        4.19000 0.30060
Cl        20.60000        8.60000        4.75000 0.30060
Cl        18.36000        6.87000        4.31000 0.30060
C         11.69000       10.90000       20.13000 -0.302700
H         10.74000       10.40000       19.91000 0.00070
Cl        12.88000        9.58000       20.28000 0.30060
Cl        12.03000       12.03000       18.81000 0.30060
Cl        11.70000       11.74000       21.72000 0.30060
C         20.43000        4.20000        8.43000 -0.302700
H         20.59000        4.52000        9.47000 0.00070
Cl        18.70000        3.97000        8.09000 0.30060
Cl        21.09000        5.51000        7.49000 0.30060
Cl        21.32000        2.71000        8.16000 0.30060
C          9.87000        7.84000       16.64000 -0.302700
H         10.49000        7.07000       17.10000 0.00070
Cl         8.47000        7.01000       15.90000 0.30060
Cl         9.29000        9.07000       17.85000 0.30060
Cl        10.92000        8.68000       15.37000 0.30060
C         11.82000       20.98000       12.30000 -0.302700
H         12.45000       20.95000       11.41000 0.00070
Cl        11.17000       22.66000       12.39000 0.30060
Cl        10.63000       19.67000       12.40000 0.30060
Cl        13.11000       20.69000       13.45000 0.30060
C          6.74000        7.39000        6.61000 -0.302700
H          7.66000        7.77000        6.15000 0.00070
Cl         5.35000        7.26000        5.42000 0.30060
Cl         7.19000        5.90000        7.40000 0.30060
Cl         6.46000        8.76000        7.73000 0.30060
C         13.67000       15.58000       15.50000 -0.302700
H         12.79000       15.90000       16.06000 0.00070
Cl        15.09000       16.61000       16.11000 0.30060
Cl        13.98000       13.86000       15.82000 0.30060
Cl        13.43000       15.90000       13.75000 0.30060
C         16.09000       20.59000        9.69000 -0.302700
H         17.02000       20.72000        9.13000 0.00070
Cl        15.25000       22.11000        9.82000 0.30060
Cl        15.13000       19.52000        8.60000 0.30060
Cl        16.36000       19.79000       11.27000 0.30060
C         19.23000       14.20000        3.65000 -0.302700
H         18.68000       13.79000        2.80000 0.00070
Cl        19.80000       12.94000        4.72000 0.30060
Cl        20.53000       15.15000        2.82000 0.30060
Cl        18.20000       15.32000        4.56000 0.30060
C         15.16000        2.15000        7.28000 -0.302700
H         16.20000        2.07000        7.59000 0.00070
Cl        14.20000        1.64000        8.68000 0.30060
Cl        14.88000        3.88000        6.69000 0.30060
Cl        14.98000        1.07000        5.86000 0.30060
C          9.27000        6.77000       10.91000 -0.302700
H          8.67000        6.40000       10.07000 0.00070
Cl        10.93000        6.19000       10.90000 0.30060
Cl         9.29000        8.47000       10.84000 0.30060
Cl         8.54000        6.31000       12.44000 0.30060
C         22.11000        4.87000       13.82000 -0.302700
H         23.09000        5.22000       14.16000 0.00070
Cl        21.60000        3.56000       14.90000 0.30060
Cl        20.96000        6.24000       13.82000 0.30060
Cl        22.46000        4.21000       12.19000 0.30060
C          5.87000        2.54000       14.91000 -0.302700
H          5.24000        2.63000       14.02000 0.00070
Cl         6.74000        4.05000       15.00000 0.30060
Cl         4.80000        2.47000       16.32000 0.30060
Cl         6.84000        1.01000       14.85000 0.30060
C         10.35000       17.58000        4.87000 -0.302700
H          9.53000       18.31000        4.93000 0.00070
Cl        11.64000       18.72000        4.55000 0.30060
Cl        10.43000       16.71000        6.43000 0.30060
Cl        10.13000       16.49000        3.44000 0.30060
C         14.07000       15.58000        4.38000 -0.302700
H         12.99000       15.66000        4.22000 0.00070
Cl        14.78000       17.02000        5.25000 0.30060
Cl        14.38000       14.00000        5.10000 0.30060
Cl        14.80000       15.67000        2.70000 0.30060
C         14.71000       14.07000       10.12000 -0.302700
H         15.46000       14.86000       10.27000 0.00070
Cl        15.04000       13.15000       11.59000 0.30060
Cl        13.08000       14.75000       10.04000 0.30060
Cl        15.21000       13.33000        8.57000 0.30060
C         15.52000        3.08000       12.52000 -0.302700
H         15.55000        3.20000       11.44000 0.00070
Cl        14.68000        4.51000       13.12000 0.30060
Cl        14.55000        1.61000       12.75000 0.30060
Cl        16.98000        2.74000       13.49000 0.30060
C         11.20000       12.32000        2.63000 -0.302700
H         10.63000       13.20000        2.34000 0.00070
Cl        11.23000       12.25000        4.38000 0.30060
Cl        10.60000       10.85000        1.83000 0.30060
Cl        12.91000       12.77000        2.08000 0.30060
C         20.82000       16.90000        7.08000 -0.302700
H         20.63000       16.43000        6.11000 0.00070
Cl        20.99000       18.70000        6.84000 0.30060
Cl        19.33000       16.56000        7.95000 0.30060
Cl        22.29000       15.95000        7.65000 0.30060
C          8.16000       14.15000       17.19000 -0.302700
H          7.81000       13.24000       16.70000 0.00070
Cl         6.76000       15.27000       16.96000 0.30060
Cl         8.43000       13.79000       18.98000 0.30060
Cl         9.57000       14.74000       16.36000 0.30060
C          1.89000       13.28000       10.62000 -0.302700
H          1.53000       13.74000       11.54000 0.00070
Cl         0.46000       12.50000        9.95000 0.30060
Cl         2.45000       14.57000        9.57000 0.30060
Cl         3.26000       12.15000       11.02000 0.30060
C         10.94000        8.10000        6.10000 -0.302700
H         11.97000        8.43000        5.93000 0.00070
Cl        10.11000        9.26000        7.10000 0.30060
Cl        10.23000        8.07000        4.41000 0.30060
Cl        10.85000        6.43000        6.79000 0.30060
C          6.86000       13.60000        9.68000 -0.302700
H          5.91000       13.91000       10.13000 0.00070
Cl         7.10000       11.89000       10.15000 0.30060
Cl         6.71000       14.07000        7.93000 0.30060
Cl         8.21000       14.35000       10.50000 0.30060
C         10.93000        3.25000       17.15000 -0.302700
H         11.23000        2.32000       17.64000 0.00070
Cl        12.42000        4.24000       17.18000 0.30060
Cl        10.44000        2.91000       15.55000 0.30060
Cl         9.54000        3.84000       18.20000 0.30060
C         16.62000        6.67000       15.39000 -0.302700
H         16.32000        5.62000       15.39000 0.00070
Cl        17.89000        7.01000       16.59000 0.30060
Cl        17.14000        7.18000       13.76000 0.30060
Cl        15.01000        7.41000       15.86000 0.30060
C          5.96000       11.72000        3.82000 -0.302700
H          6.28000       12.56000        4.44000 0.00070
Cl         4.97000       12.36000        2.44000 0.30060
Cl         7.58000       11.15000        3.21000 0.30060
Cl         5.02000       10.60000        4.79000 0.30060
C         17.59000        8.88000        9.82000 -0.302700
H         17.86000        9.42000       10.73000 0.00070
Cl        17.52000        9.97000        8.42000 0.30060
Cl        19.02000        7.82000        9.70000 0.30060
Cl        16.04000        7.99000       10.04000 0.30060
C         13.61000        9.26000        4.10000 -0.302700
H         12.63000        9.64000        3.82000 0.00070
Cl        14.86000       10.06000        3.05000 0.30060
Cl        13.96000        9.81000        5.78000 0.30060
Cl        13.77000        7.47000        4.14000 0.30060
C          8.20000        2.98000        9.12000 -0.302700
H          8.78000        3.86000        8.83000 0.00070
Cl         9.30000        1.71000        9.67000 0.30060
Cl         7.24000        3.61000       10.51000 0.30060
Cl         7.17000        2.40000        7.76000 0.30060

