--link1--
%mem=2GB
%chk=butadiene_scan_0002.chk
%nproc=8
#p Scan RB3LYP/6-31G(d)

Scan step 2     E=    -155.990956

0 1
     C            0.611719        0.400969        0.061726
     H            0.494259        1.475050        0.209209
     C           -0.611790       -0.394451        0.088251
     H           -0.482972       -1.474231        0.170387
     C           -1.844147        0.109059       -0.067220
     H           -2.013202        1.178227       -0.176455
     H           -2.724623       -0.526362       -0.078170
     C            1.843130       -0.113203       -0.062762
     H            2.005157       -1.183156       -0.175076
     H            2.727908        0.516226       -0.069871

