--link1--
%mem=2GB
%chk=butadiene_scan_0011.chk
%nproc=8
#p Scan RB3LYP/6-31G(d)

Scan step 11     E=    -155.985951

0 1
     C            0.735772        0.563123        0.000166
     H            1.193612        1.551906        0.000091
     C           -0.735712        0.563095       -0.000031
     H           -1.193761        1.551782       -0.000385
     C           -1.547123       -0.503201        0.000009
     H           -1.171628       -1.523553        0.000020
     H           -2.626811       -0.387637       -0.000053
     C            1.547125       -0.503208       -0.000031
     H            1.171393       -1.523477        0.000173
     H            2.626829       -0.387873       -0.000527

