10
Scan step 2     E=    -155.990956                                                                   
C          0.61172        0.40097        0.06173
H          0.49426        1.47505        0.20921
C         -0.61179       -0.39445        0.08825
H         -0.48297       -1.47423        0.17039
C         -1.84415        0.10906       -0.06722
H         -2.01320        1.17823       -0.17645
H         -2.72462       -0.52636       -0.07817
C          1.84313       -0.11320       -0.06276
H          2.00516       -1.18316       -0.17508
H          2.72791        0.51623       -0.06987
