--link1--
%mem=2GB
%chk=butadiene_scan_0004.chk
%nproc=8
#p Scan RB3LYP/6-31G(d)

Scan step 4     E=    -155.983559

0 1
     C            0.638968        0.392066        0.204718
     H            0.645583        1.398125        0.626252
     C           -0.638178       -0.347302        0.262192
     H           -0.582496       -1.380356        0.607583
     C           -1.802152        0.112878       -0.209007
     H           -1.901675        1.121242       -0.605216
     H           -2.701964       -0.495911       -0.196769
     C            1.795600       -0.142523       -0.201290
     H            1.856416       -1.164054       -0.570948
     H            2.718709        0.430238       -0.200574

