--link1--
%mem=2GB
%chk=butadiene_scan_0006.chk
%nproc=8
#p Scan RB3LYP/6-31G(d)

Scan step 6     E=    -155.980486

0 1
     C            0.688102        0.416877       -0.278688
     H            0.869781        1.094838       -1.115537
     C           -0.689555        0.417386        0.278983
     H           -0.903778        1.168993        1.042269
     C           -1.677380       -0.375128       -0.140860
     H           -1.519474       -1.122770       -0.914513
     H           -2.676246       -0.311621        0.283250
     C            1.681633       -0.364915        0.147762
     H            1.544203       -1.066005        0.967487
     H            2.668712       -0.328757       -0.306133

