10
Scan step 11     E=    -155.985951                                                                  
C          0.73577        0.56312        0.00017
H          1.19361        1.55191        0.00009
C         -0.73571        0.56309       -0.00003
H         -1.19376        1.55178       -0.00038
C         -1.54712       -0.50320        0.00001
H         -1.17163       -1.52355        0.00002
H         -2.62681       -0.38764       -0.00005
C          1.54712       -0.50321       -0.00003
H          1.17139       -1.52348        0.00017
H          2.62683       -0.38787       -0.00053
