10
Scan step 19     E=    -155.985951                                                                  
C         -0.00000       -0.73567        0.56321
H         -0.00015       -1.19378        1.55187
C          0.00000        0.73567        0.56321
H          0.00015        1.19378        1.55187
C         -0.00000        1.54687       -0.50326
H          0.00049        1.17099       -1.52347
H         -0.00022        2.62659       -0.38809
C          0.00000       -1.54687       -0.50326
H         -0.00049       -1.17099       -1.52347
H          0.00022       -2.62659       -0.38809
