--link1--
%mem=2GB
%chk=butadiene_scan_0017.chk
%nproc=8
#p Scan RB3LYP/6-31G(d)

Scan step 17     E=    -155.986335

0 1
     C            0.167986       -0.715751        0.560707
     H            0.434726       -1.131194        1.532641
     C           -0.167986        0.715751        0.560707
     H           -0.434726        1.131194        1.532641
     C           -0.167986        1.534160       -0.499820
     H            0.127023        1.196888       -1.490451
     H           -0.452149        2.578247       -0.407515
     C            0.167986       -1.534160       -0.499820
     H           -0.127023       -1.196888       -1.490451
     H            0.452149       -2.578247       -0.407515

