10
Scan step 4     E=    -155.989142                                                                   
C          0.59836       -0.42094        0.15920
H          1.55035        0.09320        0.29664
C         -0.59836        0.42094        0.15920
H         -1.55035       -0.09320        0.29664
C         -0.59836        1.72945       -0.12757
H          0.32633        2.27543       -0.30240
H         -1.51952        2.30178       -0.18401
C          0.59836       -1.72945       -0.12757
H         -0.32633       -2.27543       -0.30240
H          1.51952       -2.30178       -0.18401
