10
Scan step 8     E=    -155.980638                                                                   
C          0.57006       -0.47649        0.33832
H          1.47739       -0.15486        0.85236
C         -0.57006        0.47649        0.33832
H         -1.47739        0.15486        0.85236
C         -0.57006        1.65257       -0.29352
H          0.30061        2.01134       -0.83803
H         -1.44082        2.30278       -0.28312
C          0.57006       -1.65257       -0.29352
H         -0.30061       -2.01134       -0.83803
H          1.44082       -2.30278       -0.28312
