10
Scan step 6     E=    -155.984591                                                                   
C          0.58981       -0.44155        0.25641
H          1.54002        0.01618        0.53483
C         -0.58981        0.44155        0.25641
H         -1.54002       -0.01618        0.53483
C         -0.58981        1.69484       -0.21143
H          0.32490        2.18356       -0.54059
H         -1.50175        2.28264       -0.26411
C          0.58981       -1.69484       -0.21143
H         -0.32490       -2.18356       -0.54059
H          1.50175       -2.28264       -0.26411
