--link1--
%mem=2GB
%chk=butadiene_scan_0018.chk
%nproc=8
#p Scan RB3LYP/6-31G(d)

Scan step 18     E=    -155.986074

0 1
     C            0.084377       -0.730666        0.562824
     H            0.223079       -1.177878        1.546887
     C           -0.084377        0.730666        0.562824
     H           -0.223079        1.177878        1.546887
     C           -0.084377        1.543176       -0.502564
     H            0.070479        1.176976       -1.514508
     H           -0.231810        2.613499       -0.393939
     C            0.084377       -1.543176       -0.502564
     H           -0.070479       -1.176976       -1.514508
     H            0.231810       -2.613499       -0.393939

