%Mem = 2GB
%nproc=16
# b3lyp/6-31g* td 

Butadiene tddft 100

0 1
C          0.54400       -0.45600       -0.04200
H          1.54800       -0.13200       -0.20100
C         -0.54500        0.50400       -0.02500
H         -1.55800        0.07200        0.13800
C         -0.41800        1.79100        0.04600
H          0.56700        2.29900       -0.06400
H         -1.20500        2.45800        0.34600
C          0.40900       -1.83100       -0.00800
H         -0.53300       -2.31800        0.19200
H          1.29800       -2.46300       -0.06800

