%Mem = 2GB
%nproc=16
# b3lyp/6-31g* td 

Butadiene tddft 100

0 1
C          0.45400        0.15000       -0.57800
H          0.56200        1.19800       -0.77700
C         -0.65500       -0.21600        0.31000
H         -0.75800       -1.30500        0.41200
C         -1.35900        0.58300        1.15400
H         -1.26500        1.62100        1.15000
H         -2.06400        0.17600        1.84000
C          1.52500       -0.52200       -0.93800
H          1.53600       -1.46800       -0.58200
H          2.38800       -0.15700       -1.41200

