%Mem = 2GB
%nproc=16
# b3lyp/6-31g* td 

Butadiene tddft 100

0 1
C         -0.23500       -0.17800        0.64100
H          0.26400       -1.12600        0.92400
C          0.18600        0.21500       -0.68800
H         -0.18300        1.07400       -1.13600
C          1.11600       -0.46000       -1.37800
H          1.57100       -1.31800       -0.99300
H          1.54400       -0.18800       -2.34700
C         -1.08500        0.43800        1.43000
H         -1.55600        1.37100        1.10400
H         -1.41700        0.00200        2.38400

