%Mem = 2GB
%nproc=16
# b3lyp/6-31g* td 

Butadiene tddft 100

0 1
C          0.39700       -0.55900        0.33300
H          0.63900       -0.46000        1.46100
C         -0.28000        0.60300       -0.31500
H         -0.51500        0.41800       -1.36600
C         -0.58600        1.78200        0.20500
H         -0.50500        1.96000        1.19700
H         -0.94700        2.62700       -0.33400
C          0.47200       -1.81500       -0.23100
H          0.32100       -2.13400       -1.27000
H          0.97200       -2.53800        0.39700

