%Mem = 2GB
%nproc=16
# b3lyp/6-31g* td 

Butadiene tddft 100

0 1
C         -0.33700        0.62600        0.22400
H         -1.30600        0.51500        0.72300
C          0.32800       -0.60600       -0.15800
H          1.36100       -0.55200       -0.36800
C         -0.18500       -1.85900       -0.13900
H         -1.15400       -2.08500        0.24100
H          0.48000       -2.70400       -0.32100
C          0.18100        1.84300        0.06500
H          1.16800        2.05600       -0.45800
H         -0.39800        2.71300        0.28200

