%Mem = 2GB
%nproc=16
# b3lyp/6-31g* td 

Butadiene tddft 100

0 1
C          0.47600        0.15400       -0.50600
H          0.38200        1.14500       -1.04300
C         -0.29500       -0.03800        0.68500
H          0.06300       -0.82600        1.38000
C         -1.46700        0.59900        0.96700
H         -1.84600        1.32400        0.20500
H         -2.04600        0.31200        1.84600
C          1.30000       -0.69200       -1.11400
H          1.41900       -1.75400       -0.75500
H          1.84700       -0.48800       -2.02100

