%Mem = 2GB
%nproc=16
# b3lyp/6-31g* td 

Butadiene tddft 100

0 1
C          0.04500        0.64900        0.38500
H          0.97000        1.17500        0.29100
C         -0.02500       -0.62100       -0.33600
H         -0.91700       -1.16600       -0.10800
C          0.95400       -1.14300       -1.16500
H          1.86800       -0.56100       -1.39800
H          0.94200       -2.13500       -1.64200
C         -0.98000        1.12700        1.11700
H         -1.87800        0.44700        1.21400
H         -0.90900        2.08900        1.64200

