%Mem = 2GB
%nproc=16
# b3lyp/6-31g* td 

Butadiene tddft 100

0 1
C          0.59700       -0.20500       -0.16400
H          1.23300       -0.07500        0.74400
C         -0.72800        0.24900        0.07500
H         -1.54200        0.17400       -0.69600
C         -0.86900        0.93500        1.22700
H         -0.08600        0.85900        1.93200
H         -1.79300        1.33200        1.57000
C          0.99300       -0.96300       -1.16100
H          0.28700       -1.10900       -2.01300
H          1.98600       -1.36400       -1.27200

