%Mem = 2GB
%nproc=16
# b3lyp/6-31g* td 

Butadiene tddft 100

0 1
C          0.38800        0.56700        0.08500
H          0.75700        0.67500        1.10100
C         -0.33900       -0.58800       -0.12700
H         -0.80200       -0.65800       -1.16400
C         -0.48700       -1.59300        0.75500
H         -0.03500       -1.55500        1.74700
H         -1.06600       -2.50800        0.47000
C          0.46100        1.60500       -0.71400
H         -0.02400        1.64100       -1.66800
H          0.89200        2.52500       -0.46800

