%Mem = 2GB
%nproc=16
# b3lyp/6-31g* td 

Butadiene tddft 100

0 1
C         -0.36800        0.56300       -0.18200
H         -0.61800        0.54800       -1.30300
C          0.48000       -0.54300        0.22900
H          0.82000       -0.59200        1.22400
C          0.82800       -1.43800       -0.70600
H          0.53600       -1.36100       -1.67900
H          1.45000       -2.36900       -0.47800
C         -0.93200        1.43300        0.67600
H         -0.73700        1.38800        1.73100
H         -1.53500        2.20800        0.30600

