%Mem = 2GB
%nproc=16
# b3lyp/6-31g* td 

Butadiene tddft 100

0 1
C         -0.04400       -0.19000        0.71700
H          0.64600       -0.91400        1.11000
C          0.15000        0.34700       -0.67600
H         -0.31800        1.36100       -0.78900
C          1.02200       -0.26500       -1.53400
H          1.34000       -1.32900       -1.47500
H          1.03200        0.17100       -2.56600
C         -1.10300        0.12000        1.49500
H         -1.88100        0.74300        1.13700
H         -1.12300       -0.17000        2.54900

