%Mem = 2GB
%nproc=16
# b3lyp/6-31g* td 

Butadiene tddft 100

0 1
C          0.20200        0.68500       -0.13400
H          1.02700        0.90200       -0.85600
C         -0.17500       -0.71700        0.20900
H         -0.98300       -0.88200        0.86400
C          0.31000       -1.74700       -0.47400
H          1.11600       -1.68300       -1.16500
H         -0.15000       -2.69900       -0.25800
C         -0.32800        1.77800        0.41200
H         -1.16400        1.63100        1.09400
H          0.04500        2.74200        0.17600

