%Mem = 2GB
%nproc=16
# b3lyp/6-31g* td 

Butadiene tddft 100

0 1
C          0.41000        0.54100       -0.17900
H          1.40300        0.32700       -0.69000
C         -0.44700       -0.55600        0.13600
H         -1.34800       -0.28400        0.65400
C         -0.09300       -1.84600       -0.00200
H          0.89400       -2.00900       -0.50700
H         -0.80000       -2.70500        0.13800
C          0.12300        1.83800        0.05200
H         -0.83200        2.18800        0.42800
H          0.77000        2.74800       -0.10700

