%Mem = 2GB
%nproc=16
# b3lyp/6-31g* td 

Butadiene tddft 100

0 1
C          0.62500        0.25900       -0.30300
H          1.51400       -0.26800       -0.19100
C         -0.60300       -0.40500        0.06400
H         -1.48700       -0.05900       -0.49700
C         -0.66300       -1.37300        1.04500
H          0.30500       -1.76000        1.49100
H         -1.61700       -1.75100        1.26500
C          0.64400        1.51500       -0.78900
H         -0.27400        2.00400       -0.94200
H          1.53300        1.89500       -1.33700

