%Mem = 2GB
%nproc=16
# b3lyp/6-31g* td 

Butadiene tddft 100

0 1
C          0.16600       -0.47000        0.51200
H          1.23100       -0.16500        0.83800
C         -0.32800        0.53800       -0.52600
H         -1.27900        0.53200       -0.92900
C          0.49600        1.47900       -1.05200
H          1.54500        1.54500       -0.79800
H          0.08900        2.15900       -1.72600
C         -0.37200       -1.53800        1.06600
H         -1.26000       -2.01600        0.76900
H          0.12200       -2.15700        1.83900

