%Mem = 2GB
%nproc=16
# b3lyp/6-31g* td 

Butadiene tddft 100

0 1
C          0.00600       -0.15200        0.71500
H          0.99000       -0.52500        0.94300
C          0.00200        0.20200       -0.72900
H         -1.02700        0.46400       -1.12700
C          1.05400       -0.04200       -1.52000
H          1.88300       -0.39500       -0.97100
H          1.14200        0.08300       -2.61100
C         -1.05600        0.00400        1.53700
H         -2.00400        0.49300        1.11500
H         -1.05900       -0.26500        2.61700

