%Mem = 2GB
%nproc=16
# b3lyp/6-31g* td 

Butadiene tddft 100

0 1
C          0.34700        0.40700       -0.58400
H         -0.04400        1.36900       -0.97000
C         -0.25700       -0.15400        0.60400
H          0.57600       -0.65300        1.12300
C         -1.48800        0.08000        1.03300
H         -2.16800        0.65200        0.41400
H         -1.81000       -0.29100        1.99900
C          1.38900       -0.31800       -1.05300
H          1.59100       -1.30000       -0.63800
H          1.96600        0.03700       -1.93900

