%Mem = 2GB
%nproc=16
# b3lyp/6-31g* td 

Butadiene tddft 100

0 1
C          0.72200        0.03800       -0.20000
H          1.40100        0.69300        0.40400
C         -0.73300        0.04100        0.18000
H         -1.40300       -0.44100       -0.60100
C         -1.19300        0.63100        1.22300
H         -0.54000        1.15800        1.94700
H         -2.21500        0.65800        1.50400
C          1.19500       -0.71000       -1.20700
H          0.61900       -1.44800       -1.70800
H          2.24400       -0.61700       -1.49300

