%Mem = 2GB
%nproc=16
# b3lyp/6-31g* td 

Butadiene tddft 100

0 1
C          0.03700       -0.58700        0.35400
H         -0.02000       -0.38300        1.39100
C         -0.15600        0.58300       -0.40700
H         -0.11600        0.51300       -1.51200
C         -0.43100        1.75200        0.17500
H         -0.43700        1.94600        1.28000
H         -0.67900        2.55000       -0.42400
C          0.55400       -1.75200       -0.12000
H          0.56500       -1.86600       -1.22000
H          0.63000       -2.70900        0.46300

