%Mem = 2GB
%nproc=16
# b3lyp/6-31g* td 

Butadiene tddft 100

0 1
C         -0.46200        0.49300        0.17500
H         -1.50200        0.16100        0.12400
C          0.48600       -0.49400       -0.27400
H          1.47900       -0.09500       -0.47400
C          0.16800       -1.74200       -0.49100
H         -0.86900       -2.15500       -0.40000
H          0.86800       -2.56700       -0.70500
C         -0.17500        1.74700        0.59700
H          0.83600        2.13900        0.51000
H         -1.01200        2.45700        0.86100

