%Mem = 2GB
%nproc=16
# b3lyp/6-31g* td 

Butadiene tddft 100

0 1
C          0.31000        0.64500       -0.05100
H          1.37900        0.76600       -0.08300
C         -0.33700       -0.67200        0.01600
H         -1.37100       -0.60800       -0.17400
C          0.37500       -1.77800        0.25600
H          1.45800       -1.60500        0.47500
H         -0.11800       -2.79200        0.27500
C         -0.36800        1.77900       -0.19600
H         -1.38300        1.85700       -0.53900
H          0.27900        2.68900       -0.24700

