%Mem = 2GB
%nproc=16
# b3lyp/6-31g* td 

Butadiene tddft 100

0 1
C         -0.34600        0.14300        0.57500
H         -0.24000       -0.62500        1.26400
C          0.32700       -0.13100       -0.63100
H          0.51300        0.76000       -1.25000
C          0.72600       -1.36800       -0.92900
H          0.57200       -2.14000       -0.21000
H          1.30100       -1.58300       -1.83200
C         -0.72400        1.34500        0.96300
H         -0.84700        2.22500        0.35900
H         -1.08300        1.50000        1.92300

