%Mem = 2GB
%nproc=16
# b3lyp/6-31g* td 

Butadiene tddft 100

0 1
C         -0.17400       -0.69600        0.02700
H         -0.14800       -1.21100       -0.95100
C          0.25500        0.74300        0.04800
H          0.40500        1.24800        0.99300
C          0.37800        1.41300       -1.12200
H          0.14500        0.91800       -2.15100
H          0.58000        2.46500       -1.21300
C         -0.44500       -1.45800        1.06900
H         -0.56800       -0.91800        2.01900
H         -0.58800       -2.52700        1.03800

