%Mem = 2GB
%nproc=16
# b3lyp/6-31g* td 

Butadiene tddft 100

0 1
C          0.34100       -0.64400       -0.16800
H          0.08400       -1.56000        0.27500
C         -0.40700        0.59200        0.13300
H         -0.05600        1.47100       -0.47200
C         -1.39000        0.69800        1.05200
H         -1.78300       -0.07700        1.71000
H         -1.73200        1.72400        1.15100
C          1.44100       -0.67100       -0.99300
H          1.72600        0.26900       -1.55800
H          1.93600       -1.52200       -1.38600

