%Mem = 2GB
%nproc=16
# b3lyp/6-31g* td 

Butadiene tddft 100

0 1
C         -0.22000       -0.12300        0.68100
H          0.11000       -1.08600        1.16900
C          0.23900        0.13500       -0.69400
H          0.04900        1.08800       -1.22200
C          1.03100       -0.69300       -1.35600
H          1.43700       -1.57700       -0.84600
H          1.45300       -0.54900       -2.37900
C         -1.07200        0.68400        1.37100
H         -1.35600        1.60500        0.87100
H         -1.43400        0.49200        2.39500

