%Mem = 2GB
%nproc=16
# b3lyp/6-31g* td 

Butadiene tddft 100

0 1
C         -0.29300        0.71000       -0.06500
H         -1.29700        0.98400        0.10800
C          0.18600       -0.65100        0.01300
H          1.25100       -0.81100       -0.23000
C         -0.49400       -1.76200        0.29500
H         -1.55100       -1.69100        0.64700
H         -0.07300       -2.73200        0.36800
C          0.57800        1.69900       -0.25700
H          1.57400        1.47400       -0.44500
H          0.37200        2.81000       -0.27100

