%Mem = 2GB
%nproc=16
# b3lyp/6-31g* td 

Butadiene tddft 100

0 1
C          0.13000       -0.68500        0.09600
H          0.82000       -1.08200       -0.71800
C         -0.19500        0.76400       -0.08200
H         -0.79700        1.20000        0.74800
C          0.34900        1.43200       -1.11000
H          0.95200        0.97100       -1.91400
H          0.15600        2.46300       -1.19200
C         -0.29800       -1.49000        1.10200
H         -0.95300       -1.26900        1.90400
H         -0.01900       -2.52800        1.11400

