%Mem = 2GB
%nproc=16
# b3lyp/6-31g* td 

Butadiene tddft 100

0 1
C         -0.17400       -0.25200        0.68300
H         -0.40700        0.45800        1.49300
C          0.05400        0.30300       -0.66700
H          0.14200       -0.49500       -1.43400
C          0.37500        1.54900       -0.99100
H          0.30300        2.33600       -0.38200
H          0.58000        1.84000       -2.04700
C         -0.24300       -1.59000        0.99000
H         -0.17200       -2.28400        0.20700
H         -0.59100       -1.96300        1.98000

