%Mem = 2GB
%nproc=16
# b3lyp/6-31g* td 

Butadiene tddft 100

0 1
C          0.65200       -0.26000       -0.15200
H          1.46400        0.38500       -0.38700
C         -0.56800        0.29300        0.40800
H         -1.18100       -0.41600        0.94900
C         -0.90900        1.58300        0.20800
H         -0.31800        2.35400       -0.36100
H         -1.79200        2.03100        0.62800
C          0.82900       -1.61000       -0.44500
H          0.06200       -2.32700       -0.21900
H          1.70800       -2.09600       -0.84000

