%Mem = 2GB
%nproc=16
# b3lyp/6-31g* td 

Butadiene tddft 100

0 1
C          0.49300       -0.09400       -0.53800
H          0.59200       -1.07300       -0.97400
C         -0.56000        0.09900        0.46100
H         -0.68600        1.14800        0.74600
C         -1.22500       -0.91000        1.04900
H         -1.10500       -1.96200        0.72000
H         -1.97800       -0.70100        1.81800
C          1.29400        0.90100       -0.97300
H          1.17700        1.87000       -0.50100
H          1.97400        0.76200       -1.79000

