%Mem = 2GB
%nproc=16
# b3lyp/6-31g* td 

Butadiene tddft 100

0 1
C         -0.56000        0.53600        0.06700
H         -1.24500        0.55700       -0.74100
C          0.54700       -0.50800       -0.07800
H          1.41500       -0.47500        0.57500
C          0.55000       -1.51000       -0.98200
H         -0.17900       -1.64900       -1.75400
H          1.31600       -2.24300       -0.99700
C         -0.54000        1.50600        0.99000
H          0.19500        1.56100        1.75800
H         -1.48000        1.96100        1.19800

