%Mem = 2GB
%nproc=16
# b3lyp/6-31g* td 

Butadiene tddft 100

0 1
C          0.05200        0.73100        0.17400
H         -0.01900        1.09800        1.22300
C         -0.19300       -0.68700       -0.12400
H         -0.49500       -0.95500       -1.06200
C         -0.08000       -1.69600        0.76100
H          0.38800       -1.51200        1.76300
H         -0.24200       -2.70800        0.55400
C          0.21300        1.65100       -0.80400
H          0.05000        1.39800       -1.78200
H          0.41000        2.70200       -0.78600

