%Mem = 2GB
%nproc=16
# b3lyp/6-31g* td 

Butadiene tddft 100

0 1
C          0.11700        0.71000       -0.04900
H         -0.43900        1.31600        0.70100
C         -0.17600       -0.70100        0.01400
H          0.24100       -1.34300       -0.77400
C         -0.92500       -1.20900        0.94500
H         -1.28200       -0.58400        1.79400
H         -1.07600       -2.31000        1.10400
C          0.97000        1.21400       -0.93200
H          1.63300        0.49100       -1.50900
H          1.08200        2.26200       -1.04300

