%Mem = 2GB
%nproc=16
# b3lyp/6-31g* td 

Butadiene tddft 100

0 1
C         -0.35100       -0.59500       -0.15200
H         -1.34700       -0.50500       -0.68400
C          0.29700        0.63400        0.22900
H          1.11600        0.65200        1.00600
C          0.04300        1.76800       -0.37200
H         -0.68900        1.83300       -1.15900
H          0.63400        2.64200       -0.10900
C         -0.00200       -1.80700        0.30000
H          0.98000       -1.88800        0.79900
H         -0.53800       -2.73500        0.08800

