%Mem = 2GB
%nproc=16
# b3lyp/6-31g* td 

Butadiene tddft 100

0 1
C          0.15500        0.18100       -0.73400
H         -0.59100        0.05400       -1.52200
C         -0.22600       -0.12400        0.66000
H          0.58300        0.04300        1.39100
C         -1.36100       -0.65500        1.08900
H         -2.15000       -0.78100        0.36000
H         -1.58100       -0.79700        2.13000
C          1.43000        0.59900       -1.02400
H          2.19700        0.66000       -0.17400
H          1.55500        0.80200       -2.08400

