%Mem = 2GB
%nproc=16
# b3lyp/6-31g* td 

Butadiene tddft 100

0 1
C         -0.46100       -0.32900        0.36800
H         -0.81000       -1.22500       -0.09400
C          0.58100        0.35000       -0.38700
H          1.16700        1.11200        0.05900
C          0.83800       -0.06500       -1.61000
H          0.33600       -0.88100       -2.02400
H          1.64700        0.38000       -2.14500
C         -0.95900        0.05400        1.62000
H         -0.64000        1.00100        2.07800
H         -1.69800       -0.51100        2.22600

