%Mem = 2GB
%nproc=16
# b3lyp/6-31g* td 

Butadiene tddft 100

0 1
C          0.38900        0.33200       -0.51700
H          0.15200        1.37700       -0.67900
C         -0.48100       -0.38000        0.44500
H         -0.26900       -1.45700        0.60900
C         -1.44400        0.23100        1.12800
H         -1.79100        1.29600        1.14300
H         -2.02100       -0.38100        1.76700
C          1.53200       -0.18500       -1.07100
H          1.75300       -1.23500       -0.98000
H          2.22400        0.42400       -1.68600

