%Mem = 2GB
%nproc=16
# b3lyp/6-31g* td 

Butadiene tddft 100

0 1
C          0.15600       -0.58300        0.47500
H          0.74200       -0.39200        1.40700
C         -0.22500        0.56500       -0.34500
H         -0.68000        0.30100       -1.28600
C          0.06200        1.82600       -0.07500
H          0.57100        2.20700        0.87000
H         -0.16800        2.65600       -0.70200
C         -0.00200       -1.82200       -0.04600
H         -0.53600       -1.94300       -0.98700
H          0.16100       -2.67000        0.58300

