%Mem = 2GB
%nproc=16
# b3lyp/6-31g* td 

Butadiene tddft 100

0 1
C         -0.25400       -0.03100        0.66100
H          0.01900       -0.97500        1.16200
C          0.29900        0.03200       -0.64100
H          0.18300        1.04100       -1.15100
C          0.90600       -0.94600       -1.25700
H          1.06100       -1.86100       -0.71600
H          1.34500       -0.87500       -2.26100
C         -0.94000        0.95000        1.24200
H         -1.23200        1.87900        0.72300
H         -1.50900        0.72400        2.19100

