%Mem = 2GB
%nproc=16
# b3lyp/6-31g* td 

Butadiene tddft 100

0 1
C          0.51400       -0.50500        0.10100
H          1.52600       -0.18900       -0.12100
C         -0.48300        0.50100       -0.14600
H         -1.56400        0.16900       -0.10000
C         -0.26300        1.83500       -0.31800
H          0.79600        2.20000       -0.33900
H         -1.14100        2.53500       -0.44200
C          0.24400       -1.82900        0.36800
H         -0.78600       -2.11800        0.55900
H          1.01500       -2.63000        0.38800

