%Mem = 2GB
%nproc=16
# b3lyp/6-31g* td 

Butadiene tddft 100

0 1
C         -0.12800        0.19500        0.69800
H          0.55100        0.90400        1.15200
C          0.14200       -0.30500       -0.68400
H         -0.45000       -1.12100       -1.16000
C          1.13000        0.27100       -1.45200
H          1.64800        1.13600       -1.17600
H          1.42500       -0.08600       -2.44900
C         -1.14100       -0.18000        1.44800
H         -1.99500       -0.69300        1.06000
H         -1.20600        0.08700        2.46300

