%Mem = 2GB
%nproc=16
# b3lyp/6-31g* td 

Butadiene tddft 100

0 1
C          0.28600       -0.58300       -0.26700
H         -0.27300       -1.46000       -0.15900
C         -0.29800        0.64300        0.23600
H          0.24000        1.61800        0.07500
C         -1.40900        0.69800        0.97300
H         -2.03300       -0.17100        1.33200
H         -1.73800        1.67000        1.30800
C          1.41700       -0.76000       -0.96000
H          2.02800        0.13100       -1.25500
H          1.81900       -1.77200       -1.07800

