%Mem = 2GB
%nproc=16
# b3lyp/6-31g* td 

Butadiene tddft 100

0 1
C         -0.61300       -0.30600        0.19600
H         -1.08500       -1.12500       -0.36000
C          0.62000        0.31700       -0.19300
H          1.01300        1.04800        0.48300
C          1.21600        0.12300       -1.33900
H          0.83200       -0.49800       -2.09300
H          2.19300        0.53700       -1.57600
C         -1.22000       -0.11800        1.32600
H         -0.85300        0.50300        2.11800
H         -2.12500       -0.65500        1.53900

