%Mem = 2GB
%nproc=16
# b3lyp/6-31g* td 

Butadiene tddft 100

0 1
C          0.20800       -0.55400        0.41700
H          1.33200       -0.92400        0.34300
C         -0.13200        0.59700       -0.33700
H         -1.22500        0.95300       -0.34400
C          0.59700        1.27200       -1.16900
H          1.66700        1.10800       -1.24600
H          0.41000        2.12900       -1.77600
C         -0.68500       -1.32000        1.11100
H         -1.73900       -0.99500        1.13100
H         -0.30300       -2.21600        1.61900

