%Mem = 2GB
%nproc=16
# b3lyp/6-31g* td 

Butadiene tddft 100

0 1
C         -0.42000        0.14100        0.58400
H         -0.70700       -0.70700        1.22200
C          0.37300       -0.13100       -0.61200
H          0.57800        0.82300       -1.15200
C          0.76000       -1.37000       -1.04100
H          0.88000       -2.26400       -0.38500
H          1.38100       -1.45500       -1.95600
C         -0.73500        1.36300        1.05700
H         -0.61600        2.18800        0.46800
H         -1.25700        1.37700        1.95300

