%Mem = 2GB
%nproc=16
# b3lyp/6-31g* td 

Butadiene tddft 100

0 1
C          0.67100       -0.23000       -0.07300
H          1.41800        0.21900        0.56600
C         -0.65800        0.26700        0.07400
H         -1.35800       -0.05800       -0.63700
C         -1.10400        0.93600        1.11900
H         -0.42800        1.25100        1.83600
H         -2.16600        1.28100        1.12800
C          1.09900       -0.97700       -1.10300
H          0.32000       -1.32900       -1.76400
H          2.11800       -1.31100       -1.32600

