%Mem = 2GB
%nproc=16
# b3lyp/6-31g* td 

Butadiene tddft 100

0 1
C          0.19400       -0.48200       -0.56500
H          0.18000       -0.05000       -1.53400
C         -0.14200        0.47100        0.53800
H         -0.13000        0.03100        1.48600
C         -0.56900        1.79500        0.43800
H         -0.65800        2.28400       -0.49300
H         -0.71000        2.37100        1.31200
C          0.52100       -1.77400       -0.42400
H          0.36900       -2.28500        0.59000
H          0.89300       -2.46100       -1.20900

