%Mem = 2GB
%nproc=16
# b3lyp/6-31g* td 

Butadiene tddft 100

0 1
C         -0.35700       -0.20800        0.55700
H         -0.31800       -1.32100        0.62400
C          0.31600        0.26000       -0.60700
H          0.34200        1.30400       -0.84800
C          0.92900       -0.59000       -1.46800
H          1.08700       -1.64900       -1.36700
H          1.31100       -0.21600       -2.41500
C         -0.89800        0.54700        1.53100
H         -0.91500        1.62000        1.48500
H         -1.38600        0.16000        2.36000

