%Mem = 2GB
%nproc=16
# b3lyp/6-31g* td 

Butadiene tddft 100

0 1
C          0.09400       -0.20200        0.72200
H          0.93300        0.30800        1.23000
C         -0.03200        0.11100       -0.75900
H         -0.68700       -0.45800       -1.35600
C          0.76100        0.97700       -1.39400
H          1.27200        1.76600       -0.82700
H          0.77100        1.16600       -2.42400
C         -0.81900       -0.91700        1.41900
H         -1.58900       -1.47900        0.97900
H         -0.74600       -0.94000        2.52900

