10
Scan step 6     E=    -155.980486                                                                   
C          0.68810        0.41688       -0.27869
H          0.86978        1.09484       -1.11554
C         -0.68956        0.41739        0.27898
H         -0.90378        1.16899        1.04227
C         -1.67738       -0.37513       -0.14086
H         -1.51947       -1.12277       -0.91451
H         -2.67625       -0.31162        0.28325
C          1.68163       -0.36492        0.14776
H          1.54420       -1.06601        0.96749
H          2.66871       -0.32876       -0.30613
