--link1--
%mem=2GB
%chk=butadiene_scan_0003.chk
%nproc=8
#p Scan RB3LYP/6-31G(d)

Scan step 3     E=    -155.987732

0 1
     C            0.621172        0.401272        0.126937
     H            0.553665        1.450716        0.415857
     C           -0.620843       -0.375958        0.175707
     H           -0.512707       -1.444965        0.362857
     C           -1.829737        0.109172       -0.135611
     H           -1.980201        1.160879       -0.370187
     H           -2.713037       -0.522681       -0.145209
     C            1.825680       -0.125503       -0.128152
     H            1.949924       -1.181457       -0.359201
     H            2.724725        0.483610       -0.137402

