10
Scan step 8     E=    -155.985121                                                                   
C          0.71523        0.52908       -0.15944
H          1.07171        1.40080       -0.71160
C         -0.71853        0.52042        0.18069
H         -1.11088        1.42700        0.64547
C         -1.56569       -0.46967       -0.12039
H         -1.22996       -1.36402       -0.63930
H         -2.61858       -0.41852        0.14365
C          1.57155       -0.46102        0.11371
H          1.26098       -1.33990        0.67327
H          2.61133       -0.41817       -0.19891
