10
Scan step 4     E=    -155.983559                                                                   
C          0.63897        0.39207        0.20472
H          0.64558        1.39813        0.62625
C         -0.63818       -0.34730        0.26219
H         -0.58250       -1.38036        0.60758
C         -1.80215        0.11288       -0.20901
H         -1.90168        1.12124       -0.60522
H         -2.70196       -0.49591       -0.19677
C          1.79560       -0.14252       -0.20129
H          1.85642       -1.16405       -0.57095
H          2.71871        0.43024       -0.20057
