10
Scan step 10     E=       0.011614                                                                  
C          0.67074        0.41500       -0.28425
H          0.85368        1.12818       -1.08799
C         -0.67077        0.41499        0.28427
H         -0.85507        1.13163        1.08462
C         -1.67213       -0.36854       -0.14194
H         -1.53084       -1.08440       -0.94899
H         -2.66173       -0.32629        0.30336
C          1.67228       -0.36813        0.14226
H          1.53182       -1.08203        0.95118
H          2.66142       -0.32701       -0.30419
