10
Scan step 15     E=       0.005616                                                                  
C          0.71615        0.55104       -0.14008
H          1.14001        1.48718       -0.50354
C         -0.71530        0.55406        0.13104
H         -1.12866        1.48073        0.52919
C         -1.52948       -0.48735       -0.09446
H         -1.15507       -1.42603       -0.49750
H         -2.59349       -0.43918        0.11761
C          1.52786       -0.48957        0.09774
H          1.14701       -1.43133        0.48735
H          2.59483       -0.44042       -0.09860
