10
Scan step 5     E=       0.004415                                                                   
C          0.62182        0.37921        0.20716
H          0.53746        1.44517        0.41884
C         -0.62235       -0.37893        0.20972
H         -0.53593       -1.44576        0.41546
C         -1.80817        0.11845       -0.17076
H         -1.92530        1.16513       -0.44370
H         -2.70359       -0.49531       -0.20100
C          1.80826       -0.11848       -0.17094
H          1.92583       -1.16540       -0.44274
H          2.70419        0.49469       -0.19791
