--link1--
%mem=2GB
%chk=butadiene_scanMM_0018.chk
%nproc=8
#p Scan RExternal='gromacs_link.sh  -p joyce.new.top'/ZDO

Scan step 18     E=       0.006088

0 1
     C            0.727690        0.586093       -0.037319
     H            1.206536        1.561068       -0.128060
     C           -0.727503        0.586680        0.030700
     H           -1.204345        1.560073        0.145708
     C           -1.487270       -0.516874       -0.025878
     H           -1.047152       -1.505859       -0.135189
     H           -2.570664       -0.469803        0.032771
     C            1.486932       -0.517317        0.028394
     H            1.045656       -1.506770        0.128405
     H            2.570873       -0.470196       -0.019018

