--link1--
%mem=2GB
%chk=butadiene_scanMM_0019.chk
%nproc=8
#p Scan RExternal='gromacs_link.sh  -p joyce.new.top'/ZDO

Scan step 19     E=       0.006231

0 1
     C            0.728641        0.588646       -0.000057
     H            1.210680        1.566265        0.000095
     C           -0.728644        0.588658       -0.000059
     H           -1.210690        1.566274        0.000243
     C           -1.484528       -0.518997        0.000017
     H           -1.039767       -1.511938       -0.000089
     H           -2.569522       -0.472263        0.000097
     C            1.484538       -0.519009        0.000018
     H            1.039724       -1.511925        0.000029
     H            2.569529       -0.472205        0.000110

