--link1--
%mem=2GB
%chk=butadiene_scanMM_0008.chk
%nproc=8
#p Scan RExternal='gromacs_link.sh  -p joyce.new.top'/ZDO

Scan step 8     E=       0.011041

0 1
     C            0.649075        0.335240        0.336733
     H            0.699496        1.305591        0.830672
     C           -0.649286       -0.325896        0.346066
     H           -0.693105       -1.294937        0.843159
     C           -1.734047        0.132464       -0.295394
     H           -1.718986        1.076273       -0.836451
     H           -2.675167       -0.409420       -0.288379
     C            1.733602       -0.139372       -0.293188
     H            1.714634       -1.090594       -0.820978
     H            2.677062        0.398472       -0.293323

