10
Scan step 8     E=       0.011041                                                                   
C          0.64908        0.33524        0.33673
H          0.69950        1.30559        0.83067
C         -0.64929       -0.32590        0.34607
H         -0.69310       -1.29494        0.84316
C         -1.73405        0.13246       -0.29539
H         -1.71899        1.07627       -0.83645
H         -2.67517       -0.40942       -0.28838
C          1.73360       -0.13937       -0.29319
H          1.71463       -1.09059       -0.82098
H          2.67706        0.39847       -0.29332
