10
Scan step 7     E=       0.009118                                                                   
C          0.63845        0.35210        0.29851
H          0.62827        1.37655        0.67075
C         -0.63906       -0.34840        0.30415
H         -0.62402       -1.37515        0.66949
C         -1.76144        0.12838       -0.25377
H         -1.80228        1.12517       -0.68793
H         -2.68138       -0.44846       -0.27261
C          1.76145       -0.13089       -0.25275
H          1.80023       -1.12904       -0.68394
H          2.68277        0.44372       -0.27256
