--link1--
%mem=2GB
%chk=butadiene_scanMM_0011.chk
%nproc=8
#p Scan RExternal='gromacs_link.sh  -p joyce.new.top'/ZDO

Scan step 11     E=       0.010485

0 1
     C            0.681160        0.449134       -0.257886
     H            0.924742        1.232905       -0.975165
     C           -0.681327        0.449031        0.258266
     H           -0.926173        1.235243        0.972405
     C           -1.639909       -0.399845       -0.140253
     H           -1.440848       -1.180840       -0.871119
     H           -2.649685       -0.350610        0.256387
     C            1.640146       -0.399451        0.140277
     H            1.442127       -1.179170        0.872786
     H            2.649417       -0.350741       -0.257714

