10
Scan step 17     E=       0.005767                                                                  
C          0.72564        0.57870       -0.07323
H          1.19398        1.54593       -0.25550
C         -0.72510        0.58055        0.06291
H         -1.18745        1.54272        0.28326
C         -1.49631       -0.51059       -0.05087
H         -1.07078       -1.48884       -0.26466
H         -2.57533       -0.46383        0.06283
C          1.49535       -0.51192        0.05479
H          1.06599       -1.49162        0.25375
H          2.57607       -0.46483       -0.04129
