10
Scan step 16     E=       0.005518                                                                  
C          0.72169        0.56687       -0.10739
H          1.17171        1.52121       -0.38096
C         -0.72090        0.56967        0.09662
H         -1.16152        1.51594        0.41050
C         -1.51052       -0.50067       -0.07402
H         -1.10703       -1.46186       -0.38556
H         -2.58294       -0.45330        0.09054
C          1.50904       -0.50269        0.07805
H          1.09978       -1.46642        0.37382
H          2.58411       -0.45465       -0.06794
