--link1--
%mem=2GB
%chk=butadiene_scanMM_0013.chk
%nproc=8
#p Scan RExternal='gromacs_link.sh  -p joyce.new.top'/ZDO

Scan step 13     E=       0.007409

0 1
     C            0.700632        0.507431       -0.201496
     H            1.048822        1.387967       -0.741449
     C           -0.700407        0.509075        0.198231
     H           -1.042633        1.383350        0.751942
     C           -1.579364       -0.450728       -0.125038
     H           -1.281050       -1.326513       -0.697537
     H           -2.620870       -0.399429        0.178327
     C            1.578620       -0.451785        0.126122
     H            1.277046       -1.330069        0.693057
     H            2.621791       -0.399270       -0.171255

