10
Scan step 13     E=       0.007409                                                                  
C          0.70063        0.50743       -0.20150
H          1.04882        1.38797       -0.74145
C         -0.70041        0.50908        0.19823
H         -1.04263        1.38335        0.75194
C         -1.57936       -0.45073       -0.12504
H         -1.28105       -1.32651       -0.69754
H         -2.62087       -0.39943        0.17833
C          1.57862       -0.45178        0.12612
H          1.27705       -1.33007        0.69306
H          2.62179       -0.39927       -0.17126
