--link1--
%mem=2GB
%chk=butadiene_scanMM_0002.chk
%nproc=8
#p Scan RExternal='gromacs_link.sh  -p joyce.new.top'/ZDO

Scan step 2     E=       0.000193

0 1
     C            0.609327        0.399242        0.053277
     H            0.477502        1.480146        0.102020
     C           -0.609354       -0.399301        0.053324
     H           -0.477501       -1.480196        0.102004
     C           -1.846270        0.109621       -0.043252
     H           -2.016995        1.182067       -0.110024
     H           -2.727584       -0.524887       -0.052302
     C            1.846286       -0.109581       -0.043246
     H            2.017099       -1.182013       -0.110011
     H            2.727548        0.525000       -0.052303

