--link1--
%mem=2GB
%chk=butadiene_scanMM_0015.chk
%nproc=8
#p Scan RExternal='gromacs_link.sh  -p joyce.new.top'/ZDO

Scan step 15     E=       0.005616

0 1
     C            0.716153        0.551036       -0.140080
     H            1.140011        1.487179       -0.503536
     C           -0.715299        0.554065        0.131042
     H           -1.128662        1.480725        0.529194
     C           -1.529483       -0.487352       -0.094460
     H           -1.155069       -1.426032       -0.497495
     H           -2.593485       -0.439183        0.117614
     C            1.527857       -0.489572        0.097742
     H            1.147006       -1.431325        0.487354
     H            2.594831       -0.440424       -0.098596

