10
Scan step 1     E=      -0.000091                                                                   
C         -0.32607        0.65173        0.00000
H         -1.41653        0.64538        0.00000
C          0.32607       -0.65173        0.00000
H          1.41653       -0.64538        0.00000
C         -0.32607       -1.82297        0.00000
H         -1.41301       -1.86922        0.00000
H          0.20132       -2.77208        0.00000
C          0.32607        1.82297        0.00000
H          1.41301        1.86922        0.00000
H         -0.20132        2.77208        0.00000
