10
Scan step 14     E=       0.006242                                                                  
C          0.70910        0.53110       -0.17147
H          1.09894        1.44328       -0.62323
C         -0.70857        0.53373        0.16514
H         -1.08914        1.43697        0.64202
C         -1.55277       -0.47078       -0.11158
H         -1.21321       -1.38110       -0.60124
H         -2.60647       -0.42074        0.14651
C          1.55148       -0.47255        0.11380
H          1.20661       -1.38613        0.59358
H          2.60781       -0.42122       -0.13301
