10
Scan step 18     E=       0.006088                                                                  
C          0.72769        0.58609       -0.03732
H          1.20654        1.56107       -0.12806
C         -0.72750        0.58668        0.03070
H         -1.20435        1.56007        0.14571
C         -1.48727       -0.51687       -0.02588
H         -1.04715       -1.50586       -0.13519
H         -2.57066       -0.46980        0.03277
C          1.48693       -0.51732        0.02839
H          1.04566       -1.50677        0.12841
H          2.57087       -0.47020       -0.01902
