--link1--
%mem=2GB
%chk=butadiene_scanMM_0006.chk
%nproc=8
#p Scan RExternal='gromacs_link.sh  -p joyce.new.top'/ZDO

Scan step 6     E=       0.006729

0 1
     C            0.629345        0.366908        0.254938
     H            0.575656        1.418822        0.535629
     C           -0.629980       -0.365858        0.258269
     H           -0.573455       -1.419276        0.532119
     C           -1.786478        0.123270       -0.212492
     H           -1.870418        1.150899       -0.559883
     H           -2.692027       -0.475514       -0.241312
     C            1.786681       -0.123928       -0.211918
     H            1.870233       -1.151604       -0.559261
     H            2.692606        0.474320       -0.240071

