10
Scan step 3     E=       0.001050                                                                   
C          0.61183        0.39527        0.10595
H          0.48921        1.47385        0.20464
C         -0.61194       -0.39542        0.10635
H         -0.48913       -1.47400        0.20449
C         -1.83842        0.11147       -0.08626
H         -1.99850        1.17926       -0.22023
H         -2.72249       -0.51902       -0.10368
C          1.83848       -0.11137       -0.08628
H          1.99883       -1.17913       -0.22013
H          2.72239        0.51934       -0.10367
