%mem=2gb
%nproc=2
%chk=butadiene_scanMM.chk

# Opt(modredundant,nomicro) External="gromacs_link.sh -p joyce.new.top"

Butadiene MM scan using external keyword in gaussian

0 1
 C                 -0.32607300    0.65172700    0.00000000
 H                 -1.41652600    0.64537800    0.00000000
 C                  0.32607300   -0.65172700    0.00000000
 H                  1.41652600   -0.64537800    0.00000000
 C                 -0.32607300   -1.82296600    0.00000000
 H                 -1.41301000   -1.86922300    0.00000000
 H                  0.20131700   -2.77208200    0.00000000
 C                  0.32607300    1.82296600    0.00000000
 H                  1.41301000    1.86922300    0.00000000
 H                 -0.20131700    2.77208200    0.00000000

D 5 3 1 8 S 18 10.000000

