--link1--
%mem=2GB
%chk=butadiene_scanMM_0003.chk
%nproc=8
#p Scan RExternal='gromacs_link.sh  -p joyce.new.top'/ZDO

Scan step 3     E=       0.001050

0 1
     C            0.611834        0.395266        0.105952
     H            0.489211        1.473853        0.204636
     C           -0.611942       -0.395420        0.106355
     H           -0.489133       -1.474002        0.204492
     C           -1.838423        0.111473       -0.086260
     H           -1.998501        1.179262       -0.220230
     H           -2.722490       -0.519019       -0.103681
     C            1.838479       -0.111369       -0.086282
     H            1.998830       -1.179132       -0.220132
     H            2.722393        0.519336       -0.103669

