--link1--
%mem=2GB
%chk=butadiene_scan_0006.chk
%nproc=8
#p Scan RB3LYP/6-31G(d)

Scan step 6     E=    -155.984591

0 1
     C            0.589813       -0.441550        0.256411
     H            1.540018        0.016180        0.534834
     C           -0.589813        0.441550        0.256411
     H           -1.540018       -0.016180        0.534834
     C           -0.589813        1.694838       -0.211433
     H            0.324901        2.183561       -0.540594
     H           -1.501749        2.282636       -0.264105
     C            0.589813       -1.694838       -0.211433
     H           -0.324901       -2.183561       -0.540594
     H            1.501749       -2.282636       -0.264105

