--link1--
%mem=2GB
%chk=butadiene_scan_0007.chk
%nproc=8
#p Scan RB3LYP/6-31G(d)

Scan step 7     E=    -155.982283

0 1
     C            0.581714       -0.457582        0.299436
     H            1.520483       -0.055219        0.682929
     C           -0.581714        0.457582        0.299436
     H           -1.520483        0.055219        0.682929
     C           -0.581714        1.674557       -0.252808
     H            0.317543        2.110218       -0.683097
     H           -1.479869        2.285390       -0.279603
     C            0.581714       -1.674557       -0.252808
     H           -0.317543       -2.110218       -0.683097
     H            1.479869       -2.285390       -0.279603

