--link1--
%mem=2GB
%chk=butadiene_scan_0012.chk
%nproc=8
#p Scan RB3LYP/6-31G(d)

Scan step 12     E=    -155.983129

0 1
     C            0.469942       -0.570390        0.473353
     H            1.144855       -0.633310        1.329927
     C           -0.469942        0.570390        0.473353
     H           -1.144855        0.633310        1.329927
     C           -0.469942        1.559286       -0.424689
     H            0.222404        1.563801       -1.262918
     H           -1.169189        2.388765       -0.358987
     C            0.469942       -1.559286       -0.424689
     H           -0.222404       -1.563801       -1.262918
     H            1.169189       -2.388765       -0.358987

