10
Scan step 12     E=    -155.983129                                                                  
C          0.46994       -0.57039        0.47335
H          1.14486       -0.63331        1.32993
C         -0.46994        0.57039        0.47335
H         -1.14486        0.63331        1.32993
C         -0.46994        1.55929       -0.42469
H          0.22240        1.56380       -1.26292
H         -1.16919        2.38877       -0.35899
C          0.46994       -1.55929       -0.42469
H         -0.22240       -1.56380       -1.26292
H          1.16919       -2.38877       -0.35899
