--link1--
%mem=2GB
%chk=butadiene_scan_0008.chk
%nproc=8
#p Scan RB3LYP/6-31G(d)

Scan step 8     E=    -155.985121

0 1
     C            0.715233        0.529081       -0.159442
     H            1.071705        1.400799       -0.711599
     C           -0.718528        0.520419        0.180688
     H           -1.110878        1.426998        0.645472
     C           -1.565690       -0.469674       -0.120388
     H           -1.229961       -1.364015       -0.639297
     H           -2.618584       -0.418521        0.143650
     C            1.571554       -0.461025        0.113711
     H            1.260979       -1.339901        0.673274
     H            2.611327       -0.418166       -0.198913

