10
Scan step 7     E=    -155.982721                                                                   
C          0.70351        0.48902       -0.21079
H          0.97606        1.27171       -0.92231
C         -0.70777        0.47775        0.23311
H         -1.03757        1.33350        0.82666
C         -1.60907       -0.43532       -0.13807
H         -1.33687       -1.27610       -0.77123
H         -2.64446       -0.37816        0.18780
C          1.61778       -0.42141        0.13362
H          1.38399       -1.22560        0.82687
H          2.63218       -0.38561       -0.25499
