10
Scan step 10     E=    -155.986313                                                                  
C          0.73252        0.55968       -0.06822
H          1.18395        1.53509       -0.24999
C         -0.73217        0.56063        0.06230
H         -1.17977        1.53370        0.26495
C         -1.54393       -0.49921       -0.04882
H         -1.17017       -1.49146       -0.28933
H         -2.61741       -0.40473        0.08553
C          1.54328       -0.50011        0.05104
H          1.16706       -1.49353        0.28260
H          2.61814       -0.40499       -0.07154
