10
Scan step 3     E=    -155.987732                                                                   
C          0.62117        0.40127        0.12694
H          0.55366        1.45072        0.41586
C         -0.62084       -0.37596        0.17571
H         -0.51271       -1.44497        0.36286
C         -1.82974        0.10917       -0.13561
H         -1.98020        1.16088       -0.37019
H         -2.71304       -0.52268       -0.14521
C          1.82568       -0.12550       -0.12815
H          1.94992       -1.18146       -0.35920
H          2.72472        0.48361       -0.13740
