10
Scan step 9     E=    -155.986385                                                                   
C          0.72502        0.54962       -0.11707
H          1.14428        1.48611       -0.48748
C         -0.72561        0.54776        0.12321
H         -1.15199        1.48986        0.47070
C         -1.54589       -0.48861       -0.09000
H         -1.18182       -1.43080       -0.49210
H         -2.60926       -0.42473        0.12280
C          1.54702       -0.48699        0.08782
H          1.18772       -1.42667        0.50001
H          2.60780       -0.42442       -0.13774
