%chk=/home/sonatak/tfm/butadiene/scan_19files/butadiene_scan.chk
# opt=modredundant b3lyp/6-31g* geom=connectivity

Butadiene scan

0 1
 C                 -0.32607300    0.65172700    0.00000000
 H                 -1.41652600    0.64537800    0.00000000
 C                  0.32607300   -0.65172700    0.00000000
 H                  1.41652600   -0.64537800    0.00000000
 C                 -0.32607300   -1.82296600    0.00000000
 H                 -1.41301000   -1.86922300    0.00000000
 H                  0.20131700   -2.77208200    0.00000000
 C                  0.32607300    1.82296600    0.00000000
 H                  1.41301000    1.86922300    0.00000000
 H                 -0.20131700    2.77208200    0.00000000

 1 2 1.0 3 1.0 8 2.0
 2
 3 4 1.0 5 2.0
 4
 5 6 1.0 7 1.0
 6
 7
 8 9 1.0 10 1.0
 9
 10

D 5 3 1 8 S 18 10.000000

