10
Scan step 11     E=    -155.981715                                                                  
C          0.50221       -0.54484        0.44169
H          1.23543       -0.51899        1.25121
C         -0.50221        0.54484        0.44169
H         -1.23543        0.51899        1.25121
C         -0.50221        1.58330       -0.39710
H          0.23494        1.67259       -1.19127
H         -1.24779        2.37122       -0.32744
C          0.50221       -1.58330       -0.39710
H         -0.23494       -1.67259       -1.19127
H          1.24779       -2.37122       -0.32744
