10
Scan step 7     E=    -155.982283                                                                   
C          0.58171       -0.45758        0.29944
H          1.52048       -0.05522        0.68293
C         -0.58171        0.45758        0.29944
H         -1.52048        0.05522        0.68293
C         -0.58171        1.67456       -0.25281
H          0.31754        2.11022       -0.68310
H         -1.47987        2.28539       -0.27960
C          0.58171       -1.67456       -0.25281
H         -0.31754       -2.11022       -0.68310
H          1.47987       -2.28539       -0.27960
