10
Scan step 5     E=    -155.987006                                                                   
C          0.59453       -0.42996        0.20914
H          1.54765        0.06160        0.40854
C         -0.59453        0.42996        0.20914
H         -1.54765       -0.06160        0.40854
C         -0.59453        1.71411       -0.16959
H          0.32665        2.23817       -0.41576
H         -1.51337        2.28995       -0.23010
C          0.59453       -1.71411       -0.16959
H         -0.32665       -2.23817       -0.41576
H          1.51337       -2.28995       -0.23010
