10
Scan step 15     E=    -155.986288                                                                  
C          0.32007       -0.66199        0.54332
H          0.79154       -0.96341        1.47987
C         -0.32007        0.66199        0.54332
H         -0.79154        0.96341        1.47987
C         -0.32007        1.52063       -0.48357
H          0.18879        1.29193       -1.41673
H         -0.82332        2.48143       -0.42162
C          0.32007       -1.52063       -0.48357
H         -0.18879       -1.29193       -1.41673
H          0.82332       -2.48143       -0.42162
