--link1--
%mem=2GB
%chk=butadiene_scan_0004.chk
%nproc=8
#p Scan RB3LYP/6-31G(d)

Scan step 4     E=    -155.989142

0 1
     C            0.598360       -0.420943        0.159195
     H            1.550352        0.093202        0.296643
     C           -0.598360        0.420943        0.159195
     H           -1.550352       -0.093202        0.296643
     C           -0.598360        1.729447       -0.127567
     H            0.326333        2.275428       -0.302403
     H           -1.519518        2.301785       -0.184010
     C            0.598360       -1.729447       -0.127567
     H           -0.326333       -2.275428       -0.302403
     H            1.519518       -2.301785       -0.184010

