10
Scan step 18     E=    -155.986074                                                                  
C          0.08438       -0.73067        0.56282
H          0.22308       -1.17788        1.54689
C         -0.08438        0.73067        0.56282
H         -0.22308        1.17788        1.54689
C         -0.08438        1.54318       -0.50256
H          0.07048        1.17698       -1.51451
H         -0.23181        2.61350       -0.39394
C          0.08438       -1.54318       -0.50256
H         -0.07048       -1.17698       -1.51451
H          0.23181       -2.61350       -0.39394
