%chk=tddft0.chk
# b3lyp/6-31g* td opt

Butadiene tddft

0 1
C         -0.04500        0.25900        0.69000
H          0.58400        1.09000        0.92600
C          0.11400       -0.28400       -0.62200
H         -0.50600       -1.11200       -0.92200
C          0.99300        0.12500       -1.52800
H          1.65700        0.97700       -1.30500
H          0.95700       -0.38500       -2.47500
C         -1.04900       -0.10200        1.47100
H         -1.76200       -0.86500        1.19000
H         -1.08700        0.32100        2.44500

